Flow Title=Floodway
Version=Version 3.0.1  Mar 2001
Number of Profiles= 2 
Profile Names=1PCT_100yr,Floodway
River Rch & RM=B100-00-00,B100-00-00_0022 ,69793.57
     511     511
River Rch & RM=B100-00-00,B100-00-00_0022 ,69550.45
     511     511
River Rch & RM=B100-00-00,B100-00-00_0022 ,69497.74
     529     529
River Rch & RM=B100-00-00,B100-00-00_0022 ,69356.69
     554     554
River Rch & RM=B100-00-00,B100-00-00_0022 ,69160.34
     594     594
River Rch & RM=B100-00-00,B100-00-00_0022 ,68865.08
     601     601
River Rch & RM=B100-00-00,B100-00-00_0022 ,68815.08
     623     623
River Rch & RM=B100-00-00,B100-00-00_0022 ,68660.68
     639     639
River Rch & RM=B100-00-00,B100-00-00_0022 ,68556.15
     692     692
River Rch & RM=B100-00-00,B100-00-00_0022 ,68218.39
     700     700
River Rch & RM=B100-00-00,B100-00-00_0022 ,68168.29
     739     739
River Rch & RM=B100-00-00,B100-00-00_0022 ,67939.84
     775     775
River Rch & RM=B100-00-00,B100-00-00_0022 ,67739.81
     846     846
River Rch & RM=B100-00-00,B100-00-00_0022 ,67365.29
     863     863
River Rch & RM=B100-00-00,B100-00-00_0022 ,67284.87
    1032    1032
River Rch & RM=B100-00-00,B100-00-00_0022 ,66525.1 
    1045    1045
River Rch & RM=B100-00-00,B100-00-00_0022 ,66474.97
    1078    1078
River Rch & RM=B100-00-00,B100-00-00_0022 ,66343.05
    1130    1130
River Rch & RM=B100-00-00,B100-00-00_0022 ,66142.97
    1168    1168
River Rch & RM=B100-00-00,B100-00-00_0022 ,66002.63
    1193    1193
River Rch & RM=B100-00-00,B100-00-00_0022 ,65912.83
    1253    1253
River Rch & RM=B100-00-00,B100-00-00_0022 ,65706.84
    1433    1433
River Rch & RM=B100-00-00,B100-00-00_0022 ,65138.53
    1450    1450
River Rch & RM=B100-00-00,B100-00-00_0022 ,65088.44
    1507    1507
River Rch & RM=B100-00-00,B100-00-00_0022 ,64924.23
    1545    1545
River Rch & RM=B100-00-00,B100-00-00_0022 ,64819.77
    1946    1946
River Rch & RM=B100-00-00,B100-00-00_0022 ,63842.05
    1935    1935
River Rch & RM=B100-00-00,B100-00-00_0022 ,62832.56
    1926    1926
River Rch & RM=B100-00-00,B100-00-00_0022 ,62041.88
    4236    4236
River Rch & RM=B100-00-00,B100-00-00_0022 ,59178.74
    4429    4429
River Rch & RM=B100-00-00,B100-00-00_0022 ,56229.95
    4611    4611
River Rch & RM=B100-00-00,B100-00-00_0022 ,53558.74
    4770    4770
River Rch & RM=B100-00-00,B100-00-00_0022 ,51320.59
   10164   10164
River Rch & RM=B100-00-00,B100-00-00_0022 ,47029.41
   11278   11278
River Rch & RM=B100-00-00,B100-00-00_0022 ,39369.61
   11434   11434
River Rch & RM=B100-00-00,B100-00-00_0022 ,36405.95
   13843   13843
River Rch & RM=B100-00-00,B100-00-00_0022 ,26559.78
   14152   14152
River Rch & RM=B100-00-00,B100-00-00_0022 ,21228.02
   17841   17841
River Rch & RM=B100-00-00,B100-00-00_0022 ,14933.72
   29102   29102
Boundary for River Rch & Prof#=B100-00-00,B100-00-00_0022 , 1 
Up Type= 0 
Dn Type= 3 
Dn Slope=.0002
DSS Import StartDate=
DSS Import StartTime=
DSS Import EndDate=
DSS Import EndTime=
DSS Import GetInterval= 0 
DSS Import Interval=
DSS Import GetPeak= 0 
DSS Import FillOption= 0 
