Geom Title=B100-00-00
Version=Version 3.0.1  Mar 2001
Viewing Rectangle= 3186396.26283 , 3221916.45417 , 13813514.70399 , 13767790.04301 

River Reach=B100-00-00      ,B100-00-00_0022 
Reach XY= 4216 
       3186744.5       13812007.     3186766.532    13812001.674
     3186767.189    13812001.515     3186786.613    13811996.819
     3186802.771    13811992.913     3186828.109    13811986.787
     3186845.961    13811982.471     3186871.645    13811976.262
        3186881.       13811974.     3186886.204    13811972.228
     3186886.645    13811972.078       3186887.5    13811971.787
     3186916.645    13811961.862     3186931.547    13811956.787
     3186944.448    13811952.394     3186976.115     13811941.61
     3186978.887    13811940.666     3187003.978    13811932.122
     3187019.643    13811926.787     3187036.645    13811920.997
     3187046.989    13811917.475     3187072.572    13811908.763
     3187081.645    13811905.673     3187107.739    13811896.787
     3187136.408    13811887.024     3187141.645    13811885.241
     3187151.787    13811881.787     3187181.899    13811871.532
     3187193.798     13811867.48     3187220.968    13811858.228
     3187253.151    13811847.269      3187262.75       13811844.
     3187272.941    13811840.491     3187276.645    13811839.215
     3187278.452    13811838.593     3187291.645    13811834.051
     3187318.695    13811824.737     3187321.645    13811823.721
     3187323.936    13811822.932     3187351.645    13811813.392
     3187356.558      13811811.7     3187381.645    13811803.063
     3187394.344     13811798.69     3187399.252       13811797.
     3187422.585    13811788.966     3187439.415    13811783.172
     3187445.823    13811780.965     3187457.958    13811776.787
     3187471.645    13811772.074     3187478.832      13811769.6
     3187486.645     13811766.91      3187488.83    13811766.157
        3187498.       13811763.     3187500.498    13811761.787
     3187525.559    13811749.615     3187541.635    13811741.808
     3187546.645    13811739.374     3187573.204    13811726.475
     3187612.331    13811707.472     3187624.037    13811701.787
     3187636.645    13811695.663     3187648.551    13811689.881
     3187651.645    13811688.378      3187653.26    13811687.594
      3187681.25       13811674.     3187681.645    13811673.753
     3187684.791    13811671.787     3187693.823    13811666.142
     3187710.059    13811655.994     3187713.684    13811653.729
     3187741.645    13811636.253     3187756.402     13811627.03
     3187756.701    13811626.843     3187836.402     13811577.03
     3187850.653    13811568.123     3187859.815    13811562.397
      3187865.25       13811559.     3187881.262    13811548.326
     3187891.645    13811541.403     3187904.626    13811532.749
     3187960.878    13811495.248     3187977.751    13811483.999
      3188011.07    13811461.787     3188020.415    13811455.557
     3188036.261    13811444.992     3188045.683    13811438.711
      3188052.75       13811434.     3188085.729    13811414.956
     3188088.304    13811413.469     3188101.645    13811405.765
     3188129.852    13811389.476     3188132.287     13811388.07
     3188134.509    13811386.787     3188164.933    13811369.218
     3188188.358    13811355.691     3188190.484    13811354.464
      3188194.75       13811352.     3188234.908    13811326.787
     3188251.645    13811316.279     3188272.834    13811302.975
     3188281.645    13811297.443     3188282.328    13811297.014
     3188283.874    13811296.044     3188326.645     13811269.19
     3188330.473    13811266.787     3188341.645    13811259.772
     3188355.765    13811250.907     3188360.493    13811247.938
     3188371.645    13811240.937     3188378.255    13811236.787
     3188383.409    13811233.551     3188392.685    13811227.727
     3188429.482    13811204.624     3188441.106    13811197.326
     3188447.429    13811193.356     3188449.928    13811191.787
      3188470.08    13811179.135        3188491.       13811166.
     3188491.645    13811165.587     3188510.953    13811153.223
     3188536.645     13811136.77     3188572.573    13811113.763
     3188581.645    13811107.953      3188605.55    13811092.645
     3188647.918    13811065.514     3188655.315    13811060.777
     3188658.558      13811058.7     3188661.546    13811056.787
     3188669.196    13811051.888     3188685.704    13811041.317
     3188689.628    13811038.804       3188706.5       13811028.
      3188716.86    13811021.501     3188746.645    13811002.816
     3188770.718    13810987.714     3188778.002    13810983.144
     3188780.166    13810981.787      3188787.22    13810977.362
      3188794.68    13810972.682     3188810.967    13810962.465
      3188824.09    13810954.232     3188827.988    13810951.787
     3188851.645    13810936.946       3188867.5       13810927.
     3188878.504    13810920.216     3188881.645     13810918.28
     3188900.289    13810906.787     3188907.314    13810902.456
     3188916.705    13810896.667     3188935.153    13810885.295
      3188949.23    13810876.617     3188965.834    13810866.381
     3188977.765    13810859.026     3188996.393    13810847.542
     3189009.389    13810839.531      3189010.25       13810839.
     3189025.473    13810829.131      3189038.91    13810820.419
     3189072.746    13810798.483     3189080.107    13810793.711
     3189084.629    13810790.779     3189090.786    13810786.787
     3189097.692     13810782.31     3189106.645    13810776.505
     3189114.251    13810771.574     3189127.708     13810762.85
     3189136.645    13810757.056      3189138.46     13810755.88
     3189160.197    13810741.787     3189164.109    13810739.251
     3189166.645    13810737.606      3189173.75       13810733.
     3189176.094    13810731.511     3189183.533    13810726.787
     3189193.485    13810720.467     3189209.131     13810710.53
     3189213.736    13810707.606     3189237.421    13810692.563
      3189254.39    13810681.787     3189256.645    13810680.355
     3189278.009    13810666.787     3189286.645    13810661.302
     3189325.246    13810636.787      3189329.16    13810634.301
     3189342.782     13810625.65     3189347.507    13810622.649
     3189348.865    13810621.787     3189361.645     13810613.67
     3189383.887    13810599.544     3189393.376    13810593.518
     3189396.102    13810591.787       3189412.6    13810581.309
     3189420.898     13810576.04     3189421.645    13810575.565
      3189443.34    13810561.787     3189451.645    13810556.512
      3189458.75       13810552.     3189465.918    13810547.514
     3189466.447    13810547.183     3189466.812    13810546.954
      3189467.08    13810546.787     3189468.808    13810545.706
     3189492.993    13810530.569     3189496.645    13810528.284
     3189506.009    13810522.423     3189512.942    13810518.084
     3189528.402    13810508.408      3189540.62    13810500.762
     3189546.099    13810497.332     3189556.645    13810490.732
     3189562.949    13810486.787     3189568.298     13810483.44
      3189586.19    13810472.242     3189586.645    13810471.957
     3189587.997    13810471.111     3189610.884    13810456.787
     3189614.427    13810454.569     3189626.281    13810447.151
     3189631.645    13810443.794     3189647.591    13810433.814
     3189660.557    13810425.699     3189663.668    13810423.752
     3189704.977    13810397.899     3189706.645    13810396.855
     3189706.878    13810396.709     3189773.322    13810355.125
     3189796.645    13810340.528     3189826.375    13810321.922
     3189826.591    13810321.787     3189826.645    13810321.753
     3189826.736    13810321.696     3189845.076    13810310.218
     3189850.558    13810306.787     3189856.645    13810302.977
     3189863.528     13810298.67     3189871.645     13810293.59
     3189881.249    13810287.579     3189891.206    13810281.348
     3189898.493    13810276.787     3189901.645    13810274.814
     3189906.918    13810271.514     3189931.645    13810256.039
       3189936.5       13810253.     3189946.196    13810246.787
     3189946.645    13810246.499     3189947.445    13810245.987
     3189966.116    13810234.023     3189991.645    13810217.665
     3189997.879     13810213.67     3190016.424    13810201.787
     3190021.645    13810198.441     3190030.959    13810192.473
     3190056.174    13810176.316     3190079.285    13810161.507
     3190096.761    13810150.309      3190175.02    13810100.162
     3190200.678    13810083.721     3190202.446    13810082.588
     3190216.645     13810073.49     3190227.106    13810066.787
     3190261.645    13810044.655     3190287.403    13810028.149
      3190294.84    13810023.384     3190297.333    13810021.787
      3190312.15    13810012.292     3190320.742    13810006.787
     3190321.645    13810006.208     3190343.998    13809991.885
     3190367.002    13809977.144      3190367.56    13809976.787
     3190385.286    13809965.428     3190410.357    13809949.364
     3190412.712    13809947.854     3190414.378    13809946.787
     3190430.996    13809936.138     3190437.787    13809931.787
     3190441.645    13809929.315     3190448.526    13809924.905
     3190456.645    13809919.703     3190461.196    13809916.787
     3190471.645    13809910.092     3190476.706    13809906.848
     3190484.605    13809901.787     3190501.645    13809890.868
        3190503.       13809890.     3190504.154    13809889.296
     3190508.269    13809886.787     3190516.645    13809881.679
     3190529.735    13809873.697     3190531.645    13809872.532
     3190532.867    13809871.787     3190550.744    13809860.886
     3190574.268    13809846.541     3190578.698     13809843.84
     3190582.064    13809841.787     3190591.645    13809835.944
     3190606.619    13809826.813     3190606.651    13809826.793
     3190621.645     13809817.65     3190625.287    13809815.429
     3190649.797    13809800.483     3190653.241    13809798.383
     3190666.645    13809790.209     3190680.456    13809781.787
     3190681.645    13809781.062     3190683.503    13809779.929
     3190696.645    13809771.915     3190699.831    13809769.972
     3190705.055    13809766.787     3190718.466    13809758.608
     3190729.653    13809751.787     3190741.645    13809744.474
     3190748.572     13809740.25       3190778.5       13809722.
     3190779.202    13809721.557     3190796.181    13809710.858
     3190826.447    13809691.787     3190829.636    13809689.777
     3190831.645    13809688.511     3190842.019    13809681.974
     3190850.251    13809676.787     3190857.241    13809672.382
     3190861.645    13809669.607     3190874.055    13809661.787
     3190881.837    13809656.883     3190899.736    13809645.604
     3190906.645    13809641.251     3190912.451    13809637.593
     3190921.664    13809631.787     3190936.645    13809622.347
     3190945.468    13809616.787     3190949.257    13809614.399
     3190962.168    13809606.264     3190966.645    13809603.443
     3190969.273    13809601.787     3190976.862    13809597.004
     3190993.077    13809586.787     3190996.645    13809584.539
     3191004.468    13809579.609     3191011.645    13809575.087
     3191020.186    13809569.704     3191026.645    13809565.635
     3191032.073    13809562.214     3191040.686    13809556.787
     3191041.645    13809556.182     3191050.476    13809550.618
     3191060.888    13809544.056       3191070.5       13809538.
     3191081.297    13809531.091     3191086.645    13809527.668
     3191087.418    13809527.173     3191088.022    13809526.787
     3191092.943    13809523.638     3191111.462    13809511.787
     3191115.389    13809509.274     3191116.645     13809508.47
     3191119.084    13809506.909     3191131.645    13809498.871
     3191142.063    13809492.204     3191155.383     13809483.68
     3191187.796    13809462.938     3191191.645    13809460.475
     3191196.943    13809457.085     3191205.221    13809451.787
     3191215.236    13809445.378     3191233.865    13809433.457
      3191260.97    13809416.111     3191292.494    13809395.938
     3191296.645    13809393.281     3191298.981    13809391.787
     3191339.662    13809365.754     3191341.645    13809364.484
      3191345.86    13809361.787     3191352.437    13809357.578
       3191369.3    13809346.787      3191370.73    13809345.872
     3191371.645    13809345.286      3191382.44    13809338.378
      3191416.18    13809316.787     3191416.463    13809316.605
     3191416.771    13809316.408     3191431.645     13809306.89
     3191486.499    13809271.787     3191489.637    13809269.779
     3191491.645    13809268.494     3191500.791    13809262.641
     3191506.645    13809258.895     3191521.709    13809249.255
      3191535.37    13809240.512     3191536.645    13809239.697
     3191561.129    13809224.029     3191566.645    13809220.499
     3191603.698    13809196.787     3191608.544    13809193.686
     3191615.384    13809189.309     3191635.984    13809176.126
     3191652.439    13809165.596     3191681.718    13809146.859
     3191697.458    13809136.787      3191700.25       13809135.
     3191701.645    13809134.124     3191709.224    13809129.366
     3191716.645    13809124.706     3191727.653    13809117.795
     3191745.185    13809106.787     3191746.082    13809106.224
     3191746.645     13809105.87     3191755.297    13809100.438
     3191761.645    13809096.452     3191792.966    13809076.787
     3191801.369    13809071.511     3191806.645    13809068.199
     3191819.798     13809059.94     3191829.723    13809053.709
     3191836.645    13809049.363     3191840.748    13809046.787
     3191851.645    13809039.945     3191865.871    13809031.013
     3191866.645    13809030.527     3191875.086    13809025.227
     3191888.529    13809016.787     3191893.515    13809013.657
     3191910.338    13809003.094     3191911.645    13809002.273
      3191912.42    13809001.787     3191921.158      13808996.3
     3191926.645    13808992.855     3191939.587    13808984.729
     3191941.645    13808983.437     3191950.646    13808977.786
     3191956.645    13808974.019     3191960.201    13808971.787
     3191971.645    13808964.602      3191985.66    13808955.802
     3191990.953    13808952.479     3192001.645    13808945.766
     3192004.089    13808944.231     3192007.982    13808941.787
     3192013.304    13808938.446     3192031.261    13808927.171
     3192031.873    13808926.787     3192046.645    13808917.512
     3192059.376    13808909.518     3192071.568    13808901.863
     3192076.645    13808898.676     3192079.654    13808896.787
       3192082.5       13808895.     3192090.115    13808890.052
     3192106.645    13808879.311     3192113.715    13808874.717
     3192121.645    13808869.564     3192125.919    13808866.787
     3192140.185    13808857.517     3192149.003    13808851.787
     3192151.645     13808850.07     3192156.547    13808846.885
     3192166.645    13808840.323     3192172.088    13808836.787
     3192177.881    13808833.023     3192195.172    13808821.787
     3192197.354    13808820.369     3192199.378    13808819.054
        3192201.       13808818.     3192211.645    13808811.187
      3192218.52    13808806.787     3192223.474    13808803.616
     3192226.645    13808801.587     3192241.089    13808792.343
     3192241.645    13808791.987     3192241.767    13808791.909
     3192241.958    13808791.787     3192250.913    13808786.055
       3192263.5       13808778.     3192274.608    13808778.315
      3192298.75       13808779.     3192305.498    13808780.227
     3192325.445    13808783.853      3192342.75       13808787.
     3192346.645    13808788.218     3192378.945     13808798.32
     3192393.588      13808802.9       3192403.5       13808806.
     3192405.488    13808806.787     3192451.645    13808825.057
     3192463.034    13808829.565     3192470.795    13808832.637
     3192481.278    13808836.787     3192481.645    13808836.932
     3192481.885    13808837.027      3192483.04    13808837.484
       3192499.5       13808844.     3192513.259    13808848.558
     3192517.307    13808849.899      3192545.43    13808859.217
     3192579.017    13808870.345     3192586.645    13808872.872
     3192590.469    13808874.139     3192601.645    13808877.842
      3192623.25       13808885.     3192623.968    13808885.272
     3192636.232    13808889.907     3192647.517    13808894.172
     3192654.436    13808896.787     3192681.439    13808906.993
     3192728.273    13808924.694     3192736.645    13808927.858
     3192738.367    13808928.509      3192754.09    13808934.451
        3192782.       13808945.     3192804.585    13808952.375
     3192824.541    13808958.891     3192826.645    13808959.578
      3192843.25       13808965.      3192863.09    13808968.935
     3192871.233     13808970.55     3192872.609    13808970.823
       3192873.5       13808971.     3192886.645    13808973.863
     3192908.477    13808978.619     3192916.645    13808980.398
     3192921.891    13808981.541        3192924.       13808982.
      3192937.75       13808983.     3192958.159    13808979.814
     3192961.645     13808979.27        3192989.       13808975.
     3193001.378    13808971.787      3193006.04    13808970.577
     3193007.431    13808970.216     3193063.369    13808955.695
     3193065.103    13808955.245     3193069.269    13808954.163
      3193073.75       13808953.     3193083.231    13808951.258
     3193111.645    13808946.038     3193134.785    13808941.787
     3193139.802    13808940.865     3193143.189    13808940.243
      3193145.63    13808939.794     3193178.596    13808933.738
     3193186.645    13808932.259       3193193.5       13808931.
     3193194.726    13808930.827     3193223.443    13808926.787
     3193232.266    13808925.545     3193234.857    13808925.181
     3193261.645    13808921.412     3193270.083    13808920.225
     3193285.356    13808918.076     3193291.645    13808917.191
        3193293.       13808917.     3193296.278    13808916.419
     3193321.479    13808911.953     3193321.645    13808911.924
     3193322.418    13808911.787     3193334.503    13808909.645
     3193336.645    13808909.266     3193344.456    13808907.881
     3193366.645    13808903.949     3193390.927    13808899.646
     3193395.632    13808898.812      3193399.37     13808898.15
      3193407.06    13808896.787     3193423.697    13808893.839
     3193430.863    13808892.568     3193441.645    13808890.658
     3193449.181    13808889.322     3193456.645       13808888.
     3193467.325    13808886.107     3193474.664    13808884.806
       3193490.5       13808882.     3193492.018    13808881.787
     3193521.352     13808877.67     3193534.636    13808875.805
     3193538.115    13808875.317     3193546.645     13808874.12
     3193586.373    13808868.544     3193591.645    13808867.804
     3193592.537    13808867.679     3193598.894    13808866.787
     3193618.845    13808863.987     3193625.359    13808863.072
     3193645.153    13808860.294     3193651.645    13808859.383
     3193658.306    13808858.448     3193677.706    13808855.726
     3193681.645    13808855.173        3193690.       13808854.
     3193694.962     13808853.47     3193698.003    13808853.145
     3193710.718    13808851.787     3193740.077    13808848.651
     3193741.645    13808848.483     3193756.231    13808846.925
     3193786.645    13808843.676     3193797.997    13808842.463
     3193816.645    13808840.471     3193822.716    13808839.822
     3193846.645    13808837.266     3193851.132    13808836.787
       3193858.5       13808836.     3193874.743    13808834.884
     3193876.645    13808834.754     3193888.779    13808833.921
     3193891.645    13808833.724     3193894.934    13808833.498
      3193916.75       13808832.     3193921.645    13808831.016
     3193941.819    13808826.961     3193955.861    13808824.139
     3193966.415    13808822.017       3193966.5       13808822.
     3193989.478     13808814.62     3193996.645    13808812.318
     3194010.593    13808807.839     3194013.868    13808806.787
     3194026.645    13808802.683        3194035.       13808800.
     3194048.993    13808791.787     3194053.815    13808788.957
     3194067.519    13808780.913        3194081.       13808773.
     3194099.222    13808761.787      3194102.27    13808759.911
       3194126.5       13808745.     3194130.429    13808742.597
     3194146.988    13808732.472     3194148.109    13808731.787
     3194154.675    13808727.772      3194165.75       13808721.
     3194176.134    13808716.531      3194177.48    13808715.951
      3194183.48     13808713.37      3194205.25       13808704.
     3194208.015    13808703.157     3194212.512    13808701.787
     3194231.008     13808696.15     3194247.224    13808691.208
     3194254.001    13808689.143     3194261.731    13808686.787
     3194274.103    13808683.016     3194281.645    13808680.718
        3194284.       13808680.      3194289.85    13808678.582
     3194324.934    13808670.076     3194326.645    13808669.662
       3194333.5       13808668.     3194337.275    13808666.472
     3194356.645    13808658.632     3194361.203    13808656.787
     3194368.636    13808653.778     3194371.645     13808652.56
       3194375.5       13808651.     3194379.042     13808649.39
     3194386.645    13808645.934     3194395.769    13808641.787
     3194416.645    13808632.298     3194420.434    13808630.576
     3194428.769    13808626.787       3194441.5       13808621.
     3194446.645    13808618.119     3194457.952    13808611.787
     3194461.645    13808609.719     3194466.345    13808607.087
     3194476.645    13808601.319        3194479.       13808600.
     3194484.623    13808596.787       3194487.9    13808594.914
     3194510.873    13808581.787       3194517.5       13808578.
     3194524.509    13808576.059     3194543.767    13808570.726
        3194550.       13808569.     3194551.645    13808568.931
     3194565.059    13808568.373     3194568.104    13808568.246
     3194581.645    13808567.681        3194598.       13808567.
     3194611.219       13808567.     3194611.858       13808567.
     3194626.645       13808567.     3194641.432       13808567.
      3194646.75       13808567.     3194647.407    13808566.787
     3194654.383    13808564.525     3194661.079    13808562.353
     3194677.036    13808557.178     3194686.645    13808554.061
        3194693.       13808552.     3194693.536    13808551.787
     3194701.645    13808548.565     3194712.815    13808544.127
      3194730.75       13808537.     3194733.614    13808534.818
     3194744.139    13808526.799     3194746.645     13808524.89
     3194750.717    13808521.787     3194759.432    13808515.147
       3194767.5       13808509.     3194769.538    13808506.001
     3194779.196    13808491.787     3194784.605    13808483.827
     3194790.301    13808475.443     3194791.645    13808473.466
        3194794.       13808470.     3194798.775    13808461.787
     3194806.645    13808448.252     3194807.497    13808446.787
      3194808.68    13808444.752     3194829.243    13808409.385
     3194836.645    13808396.654     3194840.273    13808390.415
     3194844.733    13808382.743     3194854.604    13808365.766
     3194866.645    13808345.056     3194868.546    13808341.787
     3194881.645    13808319.257     3194884.392    13808314.533
     3194885.988    13808311.787     3194896.645    13808293.458
     3194900.936    13808286.078     3194903.431    13808281.787
     3194911.645    13808267.659     3194917.481    13808257.622
      3194920.75       13808252.     3194920.741    13808251.787
     3194920.547    13808247.336     3194920.013    13808235.051
      3194919.75       13808229.     3194920.561    13808224.829
     3194922.047    13808217.188     3194924.069    13808206.787
        3194925.       13808202.     3194926.645    13808199.308
     3194935.188     13808185.33        3194936.       13808184.
      3194941.59    13808176.787     3194951.045    13808164.587
       3194951.5       13808164.     3194955.137    13808160.279
        3194973.       13808142.     3194981.182    13808133.608
     3194984.778     13808129.92     3194986.645    13808128.005
       3194992.5       13808122.      3194994.02    13808116.787
      3195001.25       13808092.     3195001.645    13808085.996
      3195002.58    13808071.787     3195002.646    13808070.786
      3195003.75       13808054.     3195006.157    13808046.299
     3195016.645    13808012.735     3195016.901    13808011.915
     3195016.941    13808011.787     3195017.076    13808011.356
       3195017.5       13808010.     3195019.977    13807996.787
      3195023.16    13807979.816      3195024.25       13807974.
      3195024.25    13807959.182      3195024.25    13807955.484
      3195024.25       13807947.     3195025.039    13807943.393
     3195025.603    13807940.815      3195027.75       13807931.
     3195031.645    13807924.684     3195036.587     13807916.67
        3195037.       13807916.     3195043.334    13807906.787
     3195046.645    13807901.971      3195050.75       13807896.
     3195060.849    13807876.787     3195061.257    13807876.011
     3195061.645    13807875.273      3195071.25       13807857.
     3195076.281    13807846.787     3195076.645    13807846.047
     3195083.905    13807831.308     3195091.058    13807816.787
     3195091.645    13807815.595     3195106.102    13807786.244
     3195106.645    13807785.143     3195113.224    13807771.787
      3195119.61    13807758.822     3195120.275    13807757.472
        3195121.       13807756.     3195121.152    13807755.801
     3195123.981    13807752.114     3195136.645    13807735.609
     3195141.537    13807729.233     3195152.938    13807714.373
     3195154.922    13807711.787     3195160.012    13807705.153
       3195165.5       13807698.     3195174.247    13807689.253
     3195189.179    13807674.321       3195194.5       13807669.
     3195196.645    13807668.106     3195199.812    13807666.787
     3195214.448    13807660.688     3195226.645    13807655.606
       3195230.5       13807654.     3195236.455    13807651.787
     3195241.645    13807649.858      3195256.64    13807644.284
     3195271.645    13807638.707     3195276.812    13807636.787
     3195301.645    13807627.557     3195317.168    13807621.787
     3195327.722    13807617.864     3195340.209    13807613.223
       3195343.5       13807612.     3195346.645     13807610.33
     3195353.318    13807606.787     3195368.555    13807598.697
     3195376.645    13807594.401     3195381.568    13807591.787
      3195388.15    13807588.292        3195400.       13807582.
     3195406.601    13807576.787     3195406.618    13807576.773
     3195406.645    13807576.752     3195406.811    13807576.621
     3195423.387    13807563.529     3195425.593    13807561.787
     3195429.877    13807558.403      3195439.25       13807551.
     3195457.064    13807534.182      3195462.04    13807529.484
     3195464.959    13807526.728     3195472.943     13807519.19
       3195479.5       13807513.     3195481.645    13807510.849
     3195490.684    13807501.787     3195496.645    13807495.811
     3195505.646    13807486.787     3195511.645    13807480.773
     3195520.608    13807471.787     3195526.645    13807465.734
      3195535.57    13807456.787     3195544.449    13807447.885
     3195556.645    13807435.658     3195565.493    13807426.787
     3195574.297    13807417.961      3195577.25       13807415.
     3195586.645    13807407.551      3195600.22    13807396.787
     3195616.645    13807383.764     3195619.138    13807381.787
     3195626.114    13807376.256     3195638.056    13807366.787
     3195654.948    13807353.393      3195661.75       13807348.
     3195663.829    13807345.379     3195676.645    13807329.219
      3195682.54    13807321.787      3195684.75       13807319.
     3195685.473    13807317.373     3195690.178    13807306.787
     3195695.245    13807295.387      3195700.75       13807283.
     3195700.907    13807282.525     3195702.802    13807276.787
     3195703.757    13807273.899     3195706.645    13807265.155
        3195710.       13807255.     3195710.176    13807253.848
     3195711.255    13807246.787     3195712.632    13807237.773
      3195712.75       13807237.     3195711.968    13807231.787
     3195711.597    13807229.311     3195707.535    13807202.232
       3195707.5       13807202.     3195707.613    13807200.335
     3195707.736    13807198.515        3195710.       13807165.
     3195712.178    13807156.787     3195714.162    13807149.304
     3195716.155    13807141.787     3195717.305    13807137.447
      3195718.75       13807132.     3195719.232    13807126.787
     3195719.608    13807122.713     3195721.645    13807100.665
     3195721.947    13807097.392      3195722.04    13807096.392
        3195723.       13807086.     3195723.853    13807081.787
     3195725.354    13807074.369      3195727.25       13807065.
     3195734.175    13807053.022     3195734.889    13807051.787
     3195735.532    13807050.674       3195736.5       13807049.
     3195740.193    13807044.692     3195751.645     13807031.33
       3195754.5       13807028.     3195754.598    13807027.692
     3195756.477    13807021.787     3195758.931    13807014.073