Flow Title=FEMA Effective June 2007
Version=Version 3.0.1  Mar 2001
Number of Profiles= 4 
Profile Names=10PCT_10yr, 2PCT_50yr, 1PCT_100yr, 0.2PCT_500yr
River Rch & RM=B100-00-00,B100-00-00_0022            ,69793.57
     293     437     511     733
River Rch & RM=B100-00-00,B100-00-00_0022            ,69550.45
     293     437     511     733
River Rch & RM=B100-00-00,B100-00-00_0022            ,69497.74
     303     452     529     758
River Rch & RM=B100-00-00,B100-00-00_0022            ,69356.69
     318     473     554     793
River Rch & RM=B100-00-00,B100-00-00_0022            ,69160.34
     341     507     594     850
River Rch & RM=B100-00-00,B100-00-00_0022            ,68865.08
     345     513     601     860
River Rch & RM=B100-00-00,B100-00-00_0022            ,68815.08
     358     533     623     892
River Rch & RM=B100-00-00,B100-00-00_0022            ,68660.68
     367     546     639     914
River Rch & RM=B100-00-00,B100-00-00_0022            ,68556.15
     398     591     692     989
River Rch & RM=B100-00-00,B100-00-00_0022            ,68218.39
     403     599     700    1001
River Rch & RM=B100-00-00,B100-00-00_0022            ,68168.29
     426     632     739    1056
River Rch & RM=B100-00-00,B100-00-00_0022            ,67939.84
     447     663     775    1107
River Rch & RM=B100-00-00,B100-00-00_0022            ,67739.81
     489     724     846    1208
River Rch & RM=B100-00-00,B100-00-00_0022            ,67365.29
     498     738     863    1231
River Rch & RM=B100-00-00,B100-00-00_0022            ,67284.87
     598     884    1032    1471
River Rch & RM=B100-00-00,B100-00-00_0022            ,66525.1 
     605     894    1045    1489
River Rch & RM=B100-00-00,B100-00-00_0022            ,66474.97
     625     923    1078    1535
River Rch & RM=B100-00-00,B100-00-00_0022            ,66343.05
     655     968    1130    1609
River Rch & RM=B100-00-00,B100-00-00_0022            ,66142.97
     678    1000    1168    1663
River Rch & RM=B100-00-00,B100-00-00_0022            ,66002.63
     692    1022    1193    1698
River Rch & RM=B100-00-00,B100-00-00_0022            ,65912.83
     728    1073    1253    1782
River Rch & RM=B100-00-00,B100-00-00_0022            ,65706.84
     834    1228    1433    2036
River Rch & RM=B100-00-00,B100-00-00_0022            ,65138.53
     844    1242    1450    2060
River Rch & RM=B100-00-00,B100-00-00_0022            ,65088.44
     878    1292    1507    2141
River Rch & RM=B100-00-00,B100-00-00_0022            ,64924.23
     900    1324    1545    2194
River Rch & RM=B100-00-00,B100-00-00_0022            ,64819.77
    1138    1670    1946    2759
River Rch & RM=B100-00-00,B100-00-00_0022            ,63842.05
    1102    1658    1935    2746
River Rch & RM=B100-00-00,B100-00-00_0022            ,62832.56
    1075    1649    1926    2737
River Rch & RM=B100-00-00,B100-00-00_0022            ,62041.88
    2320    3656    4236    5733
River Rch & RM=B100-00-00,B100-00-00_0022            ,59178.74
    2412    3836    4429    6000
River Rch & RM=B100-00-00,B100-00-00_0022            ,56229.95
    2499    4007    4611    6253
River Rch & RM=B100-00-00,B100-00-00_0022            ,53558.74
    2574    4156    4770    6472
River Rch & RM=B100-00-00,B100-00-00_0022            ,51320.59
    5883    8585   10164   14522
River Rch & RM=B100-00-00,B100-00-00_0022            ,47029.41
    6614    9488   11278   16377
River Rch & RM=B100-00-00,B100-00-00_0022            ,39369.61
    6716    9618   11434   16653
River Rch & RM=B100-00-00,B100-00-00_0022            ,36405.95
    8194   11889   13843   20056
River Rch & RM=B100-00-00,B100-00-00_0022            ,26559.78
    8370   12207   14152   20334
River Rch & RM=B100-00-00,B100-00-00_0022            ,21228.02
   10312   15372   17841   24709
River Rch & RM=B100-00-00,B100-00-00_0022            ,14933.72
   15433   24076   29102   40693
Boundary for River Rch & Prof#=B100-00-00,B100-00-00_0022            , 1 
Up Type= 0 
Dn Type= 3 
Dn Slope=.0002
DSS Import StartDate=
DSS Import StartTime=
DSS Import EndDate=
DSS Import EndTime=
DSS Import GetInterval= 0 
DSS Import Interval=
DSS Import GetPeak= 0 
DSS Import FillOption= 0 
