Flow Title=Effective Floodway 2019
Program Version=4.10
Number of Profiles= 2 
Profile Names=100YR,FW
River Rch & RM=U100-00-00,U100-00-00_0383 ,113057.3
     998     998
River Rch & RM=U100-00-00,U100-00-00_0383 ,112249.7
    1022    1022
River Rch & RM=U100-00-00,U100-00-00_0383 ,111785  
    1076    1076
River Rch & RM=U100-00-00,U100-00-00_0383 ,110796.4
    1137    1137
River Rch & RM=U100-00-00,U100-00-00_0383 ,109730.1
    1195    1195
River Rch & RM=U100-00-00,U100-00-00_0383 ,108775.4
    1260    1260
River Rch & RM=U100-00-00,U100-00-00_0383 ,107760.3
    1331    1331
River Rch & RM=U100-00-00,U100-00-00_0383 ,106699.1
    1405    1405
River Rch & RM=U100-00-00,U100-00-00_0383 ,105654.6
    1486    1486
River Rch & RM=U100-00-00,U100-00-00_0383 ,104580.3
    1557    1557
River Rch & RM=U100-00-00,U100-00-00_0383 ,103683.9
    1600    1600
River Rch & RM=U100-00-00,U100-00-00_0383 ,103157.1
    1672    1672
River Rch & RM=U100-00-00,U100-00-00_0383 ,102304.1
    1743    1743
River Rch & RM=U100-00-00,U100-00-00_0383 ,101552.3
    1828    1828
River Rch & RM=U100-00-00,U100-00-00_0383 ,100582.2
    1931    1931
River Rch & RM=U100-00-00,U100-00-00_0383 ,99531.3 
    1935    1935
River Rch & RM=U100-00-00,U100-00-00_0383 ,99490.14
    1937    1937
River Rch & RM=U100-00-00,U100-00-00_0383 ,97495.54
    2044    2044
River Rch & RM=U100-00-00,U100-00-00_0383 ,95544.38
    2086    2086
River Rch & RM=U100-00-00,U100-00-00_0383 ,93740.3 
    2158    2158
River Rch & RM=U100-00-00,U100-00-00_0383 ,91427.11
    2254    2254
River Rch & RM=U100-00-00,U100-00-00_0383 ,89382.33
    2343    2343
River Rch & RM=U100-00-00,U100-00-00_0383 ,87061.14
    2448    2448
River Rch & RM=U100-00-00,U100-00-00_0383 ,85584.03
    2517    2517
River Rch & RM=U100-00-00,U100-00-00_0383 ,84358.83
    2575    2575
River Rch & RM=U100-00-00,U100-00-00_0383 ,82566.91
    2664    2664
River Rch & RM=U100-00-00,U100-00-00_0383 ,82288.55
    2691    2691
River Rch & RM=U100-00-00,U100-00-00_0383 ,81201.59
    2802    2802
River Rch & RM=U100-00-00,U100-00-00_0383 ,79381.02
    2996    2996
River Rch & RM=U100-00-00,U100-00-00_0383 ,77984.7 
    3155    3155
River Rch & RM=U100-00-00,U100-00-00_0383 ,76425.34
    3342    3342
River Rch & RM=U100-00-00,U100-00-00_0383 ,74744.11
    3556    3556
River Rch & RM=U100-00-00,U100-00-00_0383 ,73088.5 
    3780    3780
River Rch & RM=U100-00-00,U100-00-00_0383 ,71377.24
    4027    4027
River Rch & RM=U100-00-00,U100-00-00_0383 ,71022.41
    6296    6296
River Rch & RM=U100-00-00,U100-00-00_0383 ,70575.73
    6428    6428
River Rch & RM=U100-00-00,U100-00-00_0383 ,69460.43
    6770    6770
River Rch & RM=U100-00-00,U100-00-00_0383 ,69001.19
    6916    6916
River Rch & RM=U100-00-00,U100-00-00_0383 ,68180.03
    7185    7185
River Rch & RM=U100-00-00,U100-00-00_0383 ,67130.95
    7544    7544
River Rch & RM=U100-00-00,U100-00-00_0383 ,65911.57
    7985    7985
River Rch & RM=U100-00-00,U100-00-00_0383 ,65193.2 
    8256    8256
River Rch & RM=U100-00-00,U100-00-00_0383 ,64058.53
    8703    8703
River Rch & RM=U100-00-00,U100-00-00_0383 ,63161.89
    8810    8810
River Rch & RM=U100-00-00,U100-00-00_0383 ,58763.71
    9354    9354
River Rch & RM=U100-00-00,U100-00-00_0383 ,54446.93
    9921    9921
River Rch & RM=U100-00-00,U100-00-00_0383 ,50060.86
   10533   10533
River Rch & RM=U100-00-00,U100-00-00_0383 ,49388.92
   19258   19258
River Rch & RM=U100-00-00,U100-00-00_0383 ,48823.23
   19654   19654
River Rch & RM=U100-00-00,U100-00-00_0383 ,43528.58
   20052   20052
Boundary for River Rch & Prof#=U100-00-00,U100-00-00_0383 , 1 
Up Type= 0 
Dn Type= 1 
Dn Known WS=100.8
Boundary for River Rch & Prof#=U100-00-00,U100-00-00_0383 , 2 
Up Type= 0 
Dn Type= 1 
Dn Known WS=101.8
Observed WS=U100-00-00      ,U100-00-00_0383 ,113057.3,0,157.68,157.94
Observed WS=U100-00-00      ,U100-00-00_0383 ,112699  ,0,157.23,157.57
Observed WS=U100-00-00      ,U100-00-00_0383 ,112661.3,0,157.18,157.53
Observed WS=U100-00-00      ,U100-00-00_0383 ,112573.5,0,157.07,157.44
Observed WS=U100-00-00      ,U100-00-00_0383 ,112538  ,0,157.07,157.43
Observed WS=U100-00-00      ,U100-00-00_0383 ,112398.5,0,156.92,157.18
Observed WS=U100-00-00      ,U100-00-00_0383 ,112249.7,0,156.79,156.99
Observed WS=U100-00-00      ,U100-00-00_0383 ,112227.7,0,156.4,156.74
Observed WS=U100-00-00      ,U100-00-00_0383 ,111785  ,0,156.13,156.39
Observed WS=U100-00-00      ,U100-00-00_0383 ,110796.4,0,155.43,155.75
Observed WS=U100-00-00      ,U100-00-00_0383 ,109730.1,0,154.8,154.96
Observed WS=U100-00-00      ,U100-00-00_0383 ,108775.4,0,152.76,153.47
Observed WS=U100-00-00      ,U100-00-00_0383 ,107760.3,0,152.04,152.27
Observed WS=U100-00-00      ,U100-00-00_0383 ,106699.1,0,151.58,151.81
Observed WS=U100-00-00      ,U100-00-00_0383 ,105654.6,0,151,151.27
Observed WS=U100-00-00      ,U100-00-00_0383 ,104580.3,0,150.63,150.9
Observed WS=U100-00-00      ,U100-00-00_0383 ,103683.9,0,150.42,150.69
Observed WS=U100-00-00      ,U100-00-00_0383 ,103157.1,0,150.22,150.47
Observed WS=U100-00-00      ,U100-00-00_0383 ,102624.4,0,150.19,150.44
Observed WS=U100-00-00      ,U100-00-00_0383 ,102304.1,0,150.14,150.38
Observed WS=U100-00-00      ,U100-00-00_0383 ,102197.2,0,149.91,150.29
Observed WS=U100-00-00      ,U100-00-00_0383 ,102116.5,0,149.99,150.29
Observed WS=U100-00-00      ,U100-00-00_0383 ,101930.3,0,149.9,150.23
Observed WS=U100-00-00      ,U100-00-00_0383 ,101878.4,0,149.88,150.21
Observed WS=U100-00-00      ,U100-00-00_0383 ,101828.7,0,149.85,150.2
Observed WS=U100-00-00      ,U100-00-00_0383 ,101777.7,0,149.83,150.18
Observed WS=U100-00-00      ,U100-00-00_0383 ,101652.2,0,149.77,150.14
Observed WS=U100-00-00      ,U100-00-00_0383 ,101602.5,0,149.76,150.14
Observed WS=U100-00-00      ,U100-00-00_0383 ,101552.3,0,149.75,150.13
Observed WS=U100-00-00      ,U100-00-00_0383 ,101503.3,0,149.74,150.13
Observed WS=U100-00-00      ,U100-00-00_0383 ,100582.2,0,149.55,150.04
Observed WS=U100-00-00      ,U100-00-00_0383 ,99531.3 ,0,149.44,149.97
Observed WS=U100-00-00      ,U100-00-00_0383 ,99490.14,0,149.43,149.97
Observed WS=U100-00-00      ,U100-00-00_0383 ,98634.54,0,149.32,149.89
Observed WS=U100-00-00      ,U100-00-00_0383 ,97495.54,0,148.98,149.6
Observed WS=U100-00-00      ,U100-00-00_0383 ,96771.5 ,0,148.26,148.78
Observed WS=U100-00-00      ,U100-00-00_0383 ,96004.46,0,148.09,148.56
Observed WS=U100-00-00      ,U100-00-00_0383 ,95544.38,0,147.71,148.14
Observed WS=U100-00-00      ,U100-00-00_0383 ,94911.28,0,147.08,147.57
Observed WS=U100-00-00      ,U100-00-00_0383 ,94516.37,0,146.64,147.26
Observed WS=U100-00-00      ,U100-00-00_0383 ,94452.52,0,146.56,147.2
Observed WS=U100-00-00      ,U100-00-00_0383 ,94396.13,0,146.5,147.16
Observed WS=U100-00-00      ,U100-00-00_0383 ,94212.15,0,146.31,146.94
Observed WS=U100-00-00      ,U100-00-00_0383 ,94148.49,0,146.24,146.86
Observed WS=U100-00-00      ,U100-00-00_0383 ,94049.88,0,146.14,146.74
Observed WS=U100-00-00      ,U100-00-00_0383 ,93740.3 ,0,145.82,146.37
Observed WS=U100-00-00      ,U100-00-00_0383 ,92724.82,0,144.63,145.04
Observed WS=U100-00-00      ,U100-00-00_0383 ,92213.05,0,143.78,144.08
Observed WS=U100-00-00      ,U100-00-00_0383 ,91427.11,0,142.73,143.17
Observed WS=U100-00-00      ,U100-00-00_0383 ,90943.98,0,142.52,142.96
Observed WS=U100-00-00      ,U100-00-00_0383 ,90469.36,0,142.31,142.75
Observed WS=U100-00-00      ,U100-00-00_0383 ,89756.23,0,142.01,142.44
Observed WS=U100-00-00      ,U100-00-00_0383 ,89599.33,0,141.95,142.37
Observed WS=U100-00-00      ,U100-00-00_0383 ,89511.89,0,141.95,142.33
Observed WS=U100-00-00      ,U100-00-00_0383 ,89382.33,0,141.9,142.27
Observed WS=U100-00-00      ,U100-00-00_0383 ,88559.77,0,141.57,141.92
Observed WS=U100-00-00      ,U100-00-00_0383 ,87976.86,0,140.6,141.06
Observed WS=U100-00-00      ,U100-00-00_0383 ,87851.38,0,140.41,140.95
Observed WS=U100-00-00      ,U100-00-00_0383 ,87766.38,0,140.35,140.9
Observed WS=U100-00-00      ,U100-00-00_0383 ,87061.14,0,139.89,140.49
Observed WS=U100-00-00      ,U100-00-00_0383 ,86116.94,0,139.49,140.1
Observed WS=U100-00-00      ,U100-00-00_0383 ,85584.03,0,138.79,139.56
Observed WS=U100-00-00      ,U100-00-00_0383 ,84647.29,0,137.86,138.99
Observed WS=U100-00-00      ,U100-00-00_0383 ,84525.94,0,137.74,138.92
Observed WS=U100-00-00      ,U100-00-00_0383 ,84358.83,0,137.57,138.82
Observed WS=U100-00-00      ,U100-00-00_0383 ,83126.72,0,134.65,136.81
Observed WS=U100-00-00      ,U100-00-00_0383 ,82787.9 ,0,133.35,135.78
Observed WS=U100-00-00      ,U100-00-00_0383 ,82691.01,0,132.98,135.48
Observed WS=U100-00-00      ,U100-00-00_0383 ,82566.91,0,132.51,135.1
Observed WS=U100-00-00      ,U100-00-00_0383 ,82349.09,0,131.68,134.44
Observed WS=U100-00-00      ,U100-00-00_0383 ,82288.55,0,131.44,134.26
Observed WS=U100-00-00      ,U100-00-00_0383 ,82214.41,0,131.16,134.03
Observed WS=U100-00-00      ,U100-00-00_0383 ,82108.27,0,130.77,133.76
Observed WS=U100-00-00      ,U100-00-00_0383 ,82016.73,0,130.59,132.87
Observed WS=U100-00-00      ,U100-00-00_0383 ,81201.59,0,129.61,131.96
Observed WS=U100-00-00      ,U100-00-00_0383 ,80190.38,0,128.64,131.01
Observed WS=U100-00-00      ,U100-00-00_0383 ,79381.02,0,127.85,130.23
Observed WS=U100-00-00      ,U100-00-00_0383 ,78709.89,0,127.19,129.58
Observed WS=U100-00-00      ,U100-00-00_0383 ,77984.7 ,0,126.47,128.84
Observed WS=U100-00-00      ,U100-00-00_0383 ,77900.38,0,126.39,128.76
Observed WS=U100-00-00      ,U100-00-00_0383 ,77238.62,0,125.76,128.09
Observed WS=U100-00-00      ,U100-00-00_0383 ,76425.34,0,125.04,127.32
Observed WS=U100-00-00      ,U100-00-00_0383 ,75591.2 ,0,124.18,126.43
Observed WS=U100-00-00      ,U100-00-00_0383 ,75549.38,0,124.15,126.39
Observed WS=U100-00-00      ,U100-00-00_0383 ,75528.21,0,123.85,126.12
Observed WS=U100-00-00      ,U100-00-00_0383 ,75445.26,0,123.81,126.07
Observed WS=U100-00-00      ,U100-00-00_0383 ,75287.42,0,123.73,125.98
Observed WS=U100-00-00      ,U100-00-00_0383 ,75169.06,0,123.33,125.45
Observed WS=U100-00-00      ,U100-00-00_0383 ,75148.62,0,123.18,125.26
Observed WS=U100-00-00      ,U100-00-00_0383 ,75030.15,0,123.04,125.05
Observed WS=U100-00-00      ,U100-00-00_0383 ,75026.36,0,122.98,125.05
Observed WS=U100-00-00      ,U100-00-00_0383 ,75005.7 ,0,122.64,125.06
Observed WS=U100-00-00      ,U100-00-00_0383 ,74959.69,0,122.55,124.97
Observed WS=U100-00-00      ,U100-00-00_0383 ,74841.23,0,122.33,124.72
Observed WS=U100-00-00      ,U100-00-00_0383 ,74744.11,0,122.14,124.52
Observed WS=U100-00-00      ,U100-00-00_0383 ,74216.28,0,120.94,123.34
Observed WS=U100-00-00      ,U100-00-00_0383 ,73387.53,0,119.24,121.75
Observed WS=U100-00-00      ,U100-00-00_0383 ,73275.78,0,119.19,121.7
Observed WS=U100-00-00      ,U100-00-00_0383 ,73218.35,0,118.99,121.47
Observed WS=U100-00-00      ,U100-00-00_0383 ,73088.5 ,0,118.78,121.25
Observed WS=U100-00-00      ,U100-00-00_0383 ,72791.48,0,118.31,120.76
Observed WS=U100-00-00      ,U100-00-00_0383 ,72607.04,0,117.78,120.26
Observed WS=U100-00-00      ,U100-00-00_0383 ,72031.7 ,0,117.22,119.82
Observed WS=U100-00-00      ,U100-00-00_0383 ,71937.8 ,0,117.13,119.75
Observed WS=U100-00-00      ,U100-00-00_0383 ,71849.88,0,117.06,119.69
Observed WS=U100-00-00      ,U100-00-00_0383 ,71778.68,0,117.01,119.64
Observed WS=U100-00-00      ,U100-00-00_0383 ,71758.34,0,116.99,119.63
Observed WS=U100-00-00      ,U100-00-00_0383 ,71756.49,0,116.99,119.63
Observed WS=U100-00-00      ,U100-00-00_0383 ,71618.56,0,116.2,118.84
Observed WS=U100-00-00      ,U100-00-00_0383 ,71580.98,0,116.16,118.8
Observed WS=U100-00-00      ,U100-00-00_0383 ,71474.76,0,116.05,118.69
Observed WS=U100-00-00      ,U100-00-00_0383 ,71377.24,0,115.94,118.59
Observed WS=U100-00-00      ,U100-00-00_0383 ,71022.41,0,115.56,118.23
Observed WS=U100-00-00      ,U100-00-00_0383 ,70575.73,0,115.03,117.75
Observed WS=U100-00-00      ,U100-00-00_0383 ,70200.7 ,0,114.58,117.34
Observed WS=U100-00-00      ,U100-00-00_0383 ,69460.43,0,113.97,116.73
Observed WS=U100-00-00      ,U100-00-00_0383 ,69001.19,0,113.66,116.4
Observed WS=U100-00-00      ,U100-00-00_0383 ,68180.03,0,112.96,115.64
Observed WS=U100-00-00      ,U100-00-00_0383 ,67130.95,0,112.36,115.05
Observed WS=U100-00-00      ,U100-00-00_0383 ,66957.83,0,112.21,114.89
Observed WS=U100-00-00      ,U100-00-00_0383 ,66850.04,0,111.93,114.57
Observed WS=U100-00-00      ,U100-00-00_0383 ,66665.68,0,111.75,114.38
Observed WS=U100-00-00      ,U100-00-00_0383 ,66117.75,0,111.21,113.81
Observed WS=U100-00-00      ,U100-00-00_0383 ,65911.57,0,110.89,113.46
Observed WS=U100-00-00      ,U100-00-00_0383 ,65193.2 ,0,110.14,112.7
Observed WS=U100-00-00      ,U100-00-00_0383 ,64572.4 ,0,109.57,112.13
Observed WS=U100-00-00      ,U100-00-00_0383 ,64058.53,0,109.33,112
Observed WS=U100-00-00      ,U100-00-00_0383 ,63538.9 ,0,108.67,111.35
Observed WS=U100-00-00      ,U100-00-00_0383 ,63161.89,0,108.43,111.12
Observed WS=U100-00-00      ,U100-00-00_0383 ,62946.27,0,108.3,110.99
Observed WS=U100-00-00      ,U100-00-00_0383 ,62063.01,0,107.95,110.64
Observed WS=U100-00-00      ,U100-00-00_0383 ,61771.35,0,107.84,110.52
Observed WS=U100-00-00      ,U100-00-00_0383 ,61237.47,0,107.64,110.31
Observed WS=U100-00-00      ,U100-00-00_0383 ,60580.55,0,107.49,110.16
Observed WS=U100-00-00      ,U100-00-00_0383 ,60029.36,0,107.28,109.91
Observed WS=U100-00-00      ,U100-00-00_0383 ,59531.67,0,107.13,109.73
Observed WS=U100-00-00      ,U100-00-00_0383 ,59431.11,0,107.1,109.7
Observed WS=U100-00-00      ,U100-00-00_0383 ,59303.02,0,107.06,109.65
Observed WS=U100-00-00      ,U100-00-00_0383 ,59170.38,0,106.56,108.95
Observed WS=U100-00-00      ,U100-00-00_0383 ,59048.18,0,106.22,108.55
Observed WS=U100-00-00      ,U100-00-00_0383 ,58916.32,0,106.14,108.48
Observed WS=U100-00-00      ,U100-00-00_0383 ,58763.71,0,106.04,108.39
Observed WS=U100-00-00      ,U100-00-00_0383 ,58379.91,0,105.86,108.17
Observed WS=U100-00-00      ,U100-00-00_0383 ,58217.4 ,0,105.78,108.08
Observed WS=U100-00-00      ,U100-00-00_0383 ,58077.66,0,105.59,107.86
Observed WS=U100-00-00      ,U100-00-00_0383 ,57389.92,0,105.2,107.37
Observed WS=U100-00-00      ,U100-00-00_0383 ,57319.71,0,105.2,107.39
Observed WS=U100-00-00      ,U100-00-00_0383 ,56824.9 ,0,104.97,107.13
Observed WS=U100-00-00      ,U100-00-00_0383 ,56770.67,0,104.95,107.11
Observed WS=U100-00-00      ,U100-00-00_0383 ,56407.3 ,0,104.81,106.94
Observed WS=U100-00-00      ,U100-00-00_0383 ,56080.86,0,104.72,106.81
Observed WS=U100-00-00      ,U100-00-00_0383 ,55795.19,0,104.64,106.69
Observed WS=U100-00-00      ,U100-00-00_0383 ,55639.65,0,104.6,106.63
Observed WS=U100-00-00      ,U100-00-00_0383 ,55604.97,0,104.59,106.62
Observed WS=U100-00-00      ,U100-00-00_0383 ,55455.98,0,104.55,106.56
Observed WS=U100-00-00      ,U100-00-00_0383 ,55208.76,0,104.49,106.47
Observed WS=U100-00-00      ,U100-00-00_0383 ,54863.05,0,104.4,106.34
Observed WS=U100-00-00      ,U100-00-00_0383 ,54591.68,0,104.35,106.26
Observed WS=U100-00-00      ,U100-00-00_0383 ,54446.93,0,104.32,106.22
Observed WS=U100-00-00      ,U100-00-00_0383 ,53835.61,0,104.2,106.05
Observed WS=U100-00-00      ,U100-00-00_0383 ,53287.78,0,103.93,105.64
Observed WS=U100-00-00      ,U100-00-00_0383 ,52978.66,0,103.77,105.42
Observed WS=U100-00-00      ,U100-00-00_0383 ,52832.13,0,103.62,105.23
Observed WS=U100-00-00      ,U100-00-00_0383 ,52321.22,0,103.53,105.11
Observed WS=U100-00-00      ,U100-00-00_0383 ,51460.62,0,103.42,104.98
Observed WS=U100-00-00      ,U100-00-00_0383 ,51306.21,0,103.38,104.93
Observed WS=U100-00-00      ,U100-00-00_0383 ,51255.05,0,103.37,104.92
Observed WS=U100-00-00      ,U100-00-00_0383 ,51230.64,0,103.36,104.92
Observed WS=U100-00-00      ,U100-00-00_0383 ,50649.96,0,103.28,104.83
Observed WS=U100-00-00      ,U100-00-00_0383 ,50060.86,0,102.83,104.36
Observed WS=U100-00-00      ,U100-00-00_0383 ,49388.92,0,102.79,104.29
Observed WS=U100-00-00      ,U100-00-00_0383 ,48823.23,0,102.75,104.24
Observed WS=U100-00-00      ,U100-00-00_0383 ,47982.29,0,102.59,104.05
Observed WS=U100-00-00      ,U100-00-00_0383 ,46816.39,0,102.31,103.72
Observed WS=U100-00-00      ,U100-00-00_0383 ,46039.27,0,102.19,103.57
Observed WS=U100-00-00      ,U100-00-00_0383 ,44920.4 ,0,102.06,103.39
Observed WS=U100-00-00      ,U100-00-00_0383 ,43528.58,0,101.68,102.92
Observed WS=U100-00-00      ,U100-00-00_0383 ,42339.98,0,100.94,102.2
Observed WS=U100-00-00      ,U100-00-00_0383 ,41257.1 ,0,100.1,101.45
Observed WS=U100-00-00      ,U100-00-00_0383 ,40140.33,0,99.61,101.02
Observed WS=U100-00-00      ,U100-00-00_0383 ,39113.75,0,98.76,100.39
Observed WS=U100-00-00      ,U100-00-00_0383 ,38317.03,0,97.6,99.9
DSS Import StartDate=
DSS Import StartTime=
DSS Import EndDate=
DSS Import EndTime=
DSS Import GetInterval= 0 
DSS Import Interval=
DSS Import GetPeak= 0 
DSS Import FillOption= 0 
