Flow Title=Effective Multi-Profile 2019
Program Version=4.10
Number of Profiles= 4 
Profile Names=10YR,50YR,100YR,500YR
River Rch & RM=U100-00-00,U100-00-00_0383 ,113057.3
     490     819     998    1531
River Rch & RM=U100-00-00,U100-00-00_0383 ,112249.7
     502     839    1022    1568
River Rch & RM=U100-00-00,U100-00-00_0383 ,111785  
     529     883    1076    1651
River Rch & RM=U100-00-00,U100-00-00_0383 ,110796.4
     559     933    1137    1744
River Rch & RM=U100-00-00,U100-00-00_0383 ,109730.1
     587     980    1195    1833
River Rch & RM=U100-00-00,U100-00-00_0383 ,108775.4
     619    1033    1260    1932
River Rch & RM=U100-00-00,U100-00-00_0383 ,107760.3
     654    1092    1331    2041
River Rch & RM=U100-00-00,U100-00-00_0383 ,106699.1
     690    1152    1405    2155
River Rch & RM=U100-00-00,U100-00-00_0383 ,105654.6
     730    1218    1486    2278
River Rch & RM=U100-00-00,U100-00-00_0383 ,104580.3
     765    1276    1557    2387
River Rch & RM=U100-00-00,U100-00-00_0383 ,103683.9
     786    1312    1600    2453
River Rch & RM=U100-00-00,U100-00-00_0383 ,103157.1
     821    1371    1672    2564
River Rch & RM=U100-00-00,U100-00-00_0383 ,102304.1
     856    1429    1743    2672
River Rch & RM=U100-00-00,U100-00-00_0383 ,101552.3
     898    1499    1828    2803
River Rch & RM=U100-00-00,U100-00-00_0383 ,100582.2
     949    1583    1931    2960
River Rch & RM=U100-00-00,U100-00-00_0383 ,99531.3 
     951    1586    1935    2966
River Rch & RM=U100-00-00,U100-00-00_0383 ,99490.14
     951    1587    1937    2969
River Rch & RM=U100-00-00,U100-00-00_0383 ,97495.54
     986    1610    2044    3112
River Rch & RM=U100-00-00,U100-00-00_0383 ,95544.38
    1020    1705    2086    3259
River Rch & RM=U100-00-00,U100-00-00_0383 ,93740.3 
    1054    1762    2158    3400
River Rch & RM=U100-00-00,U100-00-00_0383 ,91427.11
    1098    1837    2254    3591
River Rch & RM=U100-00-00,U100-00-00_0383 ,89382.33
    1138    1906    2343    3768
River Rch & RM=U100-00-00,U100-00-00_0383 ,87061.14
    1186    1988    2448    3980
River Rch & RM=U100-00-00,U100-00-00_0383 ,85584.03
    1218    2042    2517    4121
River Rch & RM=U100-00-00,U100-00-00_0383 ,84358.83
    1245    2088    2575    4242
River Rch & RM=U100-00-00,U100-00-00_0383 ,82566.91
    1285    2157    2664    4425
River Rch & RM=U100-00-00,U100-00-00_0383 ,82288.55
    1425    2418    2691    4456
River Rch & RM=U100-00-00,U100-00-00_0383 ,81201.59
    1532    2574    2802    4580
River Rch & RM=U100-00-00,U100-00-00_0383 ,79381.02
    1619    2700    2996    4795
River Rch & RM=U100-00-00,U100-00-00_0383 ,77984.7 
    1723    2849    3155    4967
River Rch & RM=U100-00-00,U100-00-00_0383 ,76425.34
    1842    3018    3342    5167
River Rch & RM=U100-00-00,U100-00-00_0383 ,74744.11
    1967    3194    3556    5391
River Rch & RM=U100-00-00,U100-00-00_0383 ,73088.5 
    2105    3387    3780    5621
River Rch & RM=U100-00-00,U100-00-00_0383 ,71377.24
    2135    3429    4027    5869
River Rch & RM=U100-00-00,U100-00-00_0383 ,71022.41
    3338    5332    6296    9378
River Rch & RM=U100-00-00,U100-00-00_0383 ,70575.73
    3500    5597    6428    9803
River Rch & RM=U100-00-00,U100-00-00_0383 ,69460.43
    3569    5710    6770    9983
River Rch & RM=U100-00-00,U100-00-00_0383 ,69001.19
    3696    5918    6916   10314
River Rch & RM=U100-00-00,U100-00-00_0383 ,68180.03
    3865    6194    7185   10753
River Rch & RM=U100-00-00,U100-00-00_0383 ,67130.95
    4070    6532    7544   11287
River Rch & RM=U100-00-00,U100-00-00_0383 ,65911.57
    4197    6739    7985   11614
River Rch & RM=U100-00-00,U100-00-00_0383 ,65193.2 
    4404    7080    8256   12149
River Rch & RM=U100-00-00,U100-00-00_0383 ,64058.53
    4575    7362    8703   12590
River Rch & RM=U100-00-00,U100-00-00_0383 ,63161.89
    4873    7839    8810   13330
River Rch & RM=U100-00-00,U100-00-00_0383 ,58763.71
    5185    8337    9354   14099
River Rch & RM=U100-00-00,U100-00-00_0383 ,54446.93
    5522    8875    9921   14926
River Rch & RM=U100-00-00,U100-00-00_0383 ,50060.86
    5575    8960   10533   15057
River Rch & RM=U100-00-00,U100-00-00_0383 ,49388.92
    9892   16013   19258   27615
River Rch & RM=U100-00-00,U100-00-00_0383 ,48823.23
   10043   16350   19654   28263
River Rch & RM=U100-00-00,U100-00-00_0383 ,43528.58
   10194   16688   20052   28915
Boundary for River Rch & Prof#=U100-00-00,U100-00-00_0383 , 1 
Up Type= 0 
Dn Type= 1 
Dn Known WS=97.6
Boundary for River Rch & Prof#=U100-00-00,U100-00-00_0383 , 2 
Up Type= 0 
Dn Type= 1 
Dn Known WS=99.9
Boundary for River Rch & Prof#=U100-00-00,U100-00-00_0383 , 3 
Up Type= 0 
Dn Type= 1 
Dn Known WS=100.8
Boundary for River Rch & Prof#=U100-00-00,U100-00-00_0383 , 4 
Up Type= 0 
Dn Type= 1 
Dn Known WS=102.4
Observed WS=U100-00-00      ,U100-00-00_0383 ,113057.3,0,157.68,157.94,158.05,158.34
Observed WS=U100-00-00      ,U100-00-00_0383 ,112699  ,0,157.23,157.57,157.68,157.97
Observed WS=U100-00-00      ,U100-00-00_0383 ,112661.3,0,157.18,157.53,157.64,157.93
Observed WS=U100-00-00      ,U100-00-00_0383 ,112573.5,0,157.07,157.44,157.55,157.84
Observed WS=U100-00-00      ,U100-00-00_0383 ,112538  ,0,157.07,157.43,157.55,157.84
Observed WS=U100-00-00      ,U100-00-00_0383 ,112398.5,0,156.92,157.18,157.27,157.53
Observed WS=U100-00-00      ,U100-00-00_0383 ,112249.7,0,156.79,156.99,157.05,157.27
Observed WS=U100-00-00      ,U100-00-00_0383 ,112227.7,0,156.4,156.74,156.87,157.17
Observed WS=U100-00-00      ,U100-00-00_0383 ,111785  ,0,156.13,156.39,156.51,156.81
Observed WS=U100-00-00      ,U100-00-00_0383 ,110796.4,0,155.43,155.75,155.87,156.17
Observed WS=U100-00-00      ,U100-00-00_0383 ,109730.1,0,154.8,154.96,155.05,155.37
Observed WS=U100-00-00      ,U100-00-00_0383 ,108775.4,0,152.76,153.47,153.59,153.67
Observed WS=U100-00-00      ,U100-00-00_0383 ,107760.3,0,152.04,152.27,152.37,152.64
Observed WS=U100-00-00      ,U100-00-00_0383 ,106699.1,0,151.58,151.81,151.92,152.19
Observed WS=U100-00-00      ,U100-00-00_0383 ,105654.6,0,151,151.27,151.4,151.71
Observed WS=U100-00-00      ,U100-00-00_0383 ,104580.3,0,150.63,150.9,151.02,151.37
Observed WS=U100-00-00      ,U100-00-00_0383 ,103683.9,0,150.42,150.69,150.81,151.16
Observed WS=U100-00-00      ,U100-00-00_0383 ,103157.1,0,150.22,150.47,150.6,150.98
Observed WS=U100-00-00      ,U100-00-00_0383 ,102624.4,0,150.19,150.44,150.57,150.94
Observed WS=U100-00-00      ,U100-00-00_0383 ,102304.1,0,150.14,150.38,150.51,150.89
Observed WS=U100-00-00      ,U100-00-00_0383 ,102197.2,0,149.91,150.29,150.42,150.82
Observed WS=U100-00-00      ,U100-00-00_0383 ,102116.5,0,149.99,150.29,150.42,150.81
Observed WS=U100-00-00      ,U100-00-00_0383 ,101930.3,0,149.9,150.23,150.37,150.77
Observed WS=U100-00-00      ,U100-00-00_0383 ,101878.4,0,149.88,150.21,150.36,150.76
Observed WS=U100-00-00      ,U100-00-00_0383 ,101828.7,0,149.85,150.2,150.35,150.75
Observed WS=U100-00-00      ,U100-00-00_0383 ,101777.7,0,149.83,150.18,150.33,150.74
Observed WS=U100-00-00      ,U100-00-00_0383 ,101652.2,0,149.77,150.14,150.3,150.71
Observed WS=U100-00-00      ,U100-00-00_0383 ,101602.5,0,149.76,150.14,150.3,150.71
Observed WS=U100-00-00      ,U100-00-00_0383 ,101552.3,0,149.75,150.13,150.29,150.7
Observed WS=U100-00-00      ,U100-00-00_0383 ,101503.3,0,149.74,150.13,150.29,150.7
Observed WS=U100-00-00      ,U100-00-00_0383 ,100582.2,0,149.55,150.04,150.21,150.64
Observed WS=U100-00-00      ,U100-00-00_0383 ,99531.3 ,0,149.44,149.97,150.14,150.58
Observed WS=U100-00-00      ,U100-00-00_0383 ,99490.14,0,149.43,149.97,150.14,150.58
Observed WS=U100-00-00      ,U100-00-00_0383 ,98634.54,0,149.32,149.89,150.06,150.5
Observed WS=U100-00-00      ,U100-00-00_0383 ,97495.54,0,148.98,149.6,149.78,150.21
Observed WS=U100-00-00      ,U100-00-00_0383 ,96771.5 ,0,148.26,148.78,148.99,149.43
Observed WS=U100-00-00      ,U100-00-00_0383 ,96004.46,0,148.09,148.56,148.73,149.07
Observed WS=U100-00-00      ,U100-00-00_0383 ,95544.38,0,147.71,148.14,148.3,148.56
Observed WS=U100-00-00      ,U100-00-00_0383 ,94911.28,0,147.08,147.57,147.71,148.02
Observed WS=U100-00-00      ,U100-00-00_0383 ,94516.37,0,146.64,147.26,147.4,147.72
Observed WS=U100-00-00      ,U100-00-00_0383 ,94452.52,0,146.56,147.2,147.35,147.67
Observed WS=U100-00-00      ,U100-00-00_0383 ,94396.13,0,146.5,147.16,147.31,147.63
Observed WS=U100-00-00      ,U100-00-00_0383 ,94212.15,0,146.31,146.94,147.09,147.43
Observed WS=U100-00-00      ,U100-00-00_0383 ,94148.49,0,146.24,146.86,147.02,147.36
Observed WS=U100-00-00      ,U100-00-00_0383 ,94049.88,0,146.14,146.74,146.9,147.25
Observed WS=U100-00-00      ,U100-00-00_0383 ,93740.3 ,0,145.82,146.37,146.54,146.91
Observed WS=U100-00-00      ,U100-00-00_0383 ,92724.82,0,144.63,145.04,145.19,145.54
Observed WS=U100-00-00      ,U100-00-00_0383 ,92213.05,0,143.78,144.08,144.24,144.58
Observed WS=U100-00-00      ,U100-00-00_0383 ,91427.11,0,142.73,143.17,143.36,143.81
Observed WS=U100-00-00      ,U100-00-00_0383 ,90943.98,0,142.52,142.96,143.13,143.57
Observed WS=U100-00-00      ,U100-00-00_0383 ,90469.36,0,142.31,142.75,142.91,143.33
Observed WS=U100-00-00      ,U100-00-00_0383 ,89756.23,0,142.01,142.44,142.56,142.92
Observed WS=U100-00-00      ,U100-00-00_0383 ,89599.33,0,141.95,142.37,142.49,142.84
Observed WS=U100-00-00      ,U100-00-00_0383 ,89511.89,0,141.95,142.33,142.48,142.84
Observed WS=U100-00-00      ,U100-00-00_0383 ,89382.33,0,141.9,142.27,142.42,142.77
Observed WS=U100-00-00      ,U100-00-00_0383 ,88559.77,0,141.57,141.92,142.05,142.36
Observed WS=U100-00-00      ,U100-00-00_0383 ,87976.86,0,140.6,141.06,141.24,141.75
Observed WS=U100-00-00      ,U100-00-00_0383 ,87851.38,0,140.41,140.95,141.15,141.68
Observed WS=U100-00-00      ,U100-00-00_0383 ,87766.38,0,140.35,140.9,141.1,141.64
Observed WS=U100-00-00      ,U100-00-00_0383 ,87061.14,0,139.89,140.49,140.73,141.31
Observed WS=U100-00-00      ,U100-00-00_0383 ,86116.94,0,139.49,140.1,140.35,140.92
Observed WS=U100-00-00      ,U100-00-00_0383 ,85584.03,0,138.79,139.56,139.84,140.45
Observed WS=U100-00-00      ,U100-00-00_0383 ,84647.29,0,137.86,138.99,139.27,139.85
Observed WS=U100-00-00      ,U100-00-00_0383 ,84525.94,0,137.74,138.92,139.19,139.78
Observed WS=U100-00-00      ,U100-00-00_0383 ,84358.83,0,137.57,138.82,139.09,139.67
Observed WS=U100-00-00      ,U100-00-00_0383 ,83126.72,0,134.65,136.81,137.49,138.68
Observed WS=U100-00-00      ,U100-00-00_0383 ,82787.9 ,0,133.35,135.78,136.6,138.12
Observed WS=U100-00-00      ,U100-00-00_0383 ,82691.01,0,132.98,135.48,136.34,137.95
Observed WS=U100-00-00      ,U100-00-00_0383 ,82566.91,0,132.51,135.1,136.02,137.75
Observed WS=U100-00-00      ,U100-00-00_0383 ,82349.09,0,131.68,134.44,135.44,137.38
Observed WS=U100-00-00      ,U100-00-00_0383 ,82288.55,0,131.44,134.26,135.29,137.28
Observed WS=U100-00-00      ,U100-00-00_0383 ,82214.41,0,131.16,134.03,135.09,137.16
Observed WS=U100-00-00      ,U100-00-00_0383 ,82108.27,0,130.77,133.76,134.82,137.05
Observed WS=U100-00-00      ,U100-00-00_0383 ,82016.73,0,130.59,132.87,133.91,135.94
Observed WS=U100-00-00      ,U100-00-00_0383 ,81201.59,0,129.61,131.96,133.05,135.17
Observed WS=U100-00-00      ,U100-00-00_0383 ,80190.38,0,128.64,131.01,132.11,134.23
Observed WS=U100-00-00      ,U100-00-00_0383 ,79381.02,0,127.85,130.23,131.34,133.42
Observed WS=U100-00-00      ,U100-00-00_0383 ,78709.89,0,127.19,129.58,130.69,132.92
Observed WS=U100-00-00      ,U100-00-00_0383 ,77984.7 ,0,126.47,128.84,129.93,132.15
Observed WS=U100-00-00      ,U100-00-00_0383 ,77900.38,0,126.39,128.76,129.84,132.06
Observed WS=U100-00-00      ,U100-00-00_0383 ,77238.62,0,125.76,128.09,129.17,131.34
Observed WS=U100-00-00      ,U100-00-00_0383 ,76425.34,0,125.04,127.32,128.4,130.55
Observed WS=U100-00-00      ,U100-00-00_0383 ,75591.2 ,0,124.18,126.43,127.51,129.87
Observed WS=U100-00-00      ,U100-00-00_0383 ,75549.38,0,124.15,126.39,127.47,129.84
Observed WS=U100-00-00      ,U100-00-00_0383 ,75528.21,0,123.85,126.12,127.24,129.83
Observed WS=U100-00-00      ,U100-00-00_0383 ,75445.26,0,123.81,126.07,127.19,129.76
Observed WS=U100-00-00      ,U100-00-00_0383 ,75287.42,0,123.73,125.98,127.1,129.62
Observed WS=U100-00-00      ,U100-00-00_0383 ,75169.06,0,123.33,125.45,126.54,128.93
Observed WS=U100-00-00      ,U100-00-00_0383 ,75148.62,0,123.18,125.26,126.37,128.71
Observed WS=U100-00-00      ,U100-00-00_0383 ,75030.15,0,123.04,125.05,126.16,128.41
Observed WS=U100-00-00      ,U100-00-00_0383 ,75026.36,0,122.98,125.05,126.16,128.4
Observed WS=U100-00-00      ,U100-00-00_0383 ,75005.7 ,0,122.64,125.06,126.15,128.36
Observed WS=U100-00-00      ,U100-00-00_0383 ,74959.69,0,122.55,124.97,126.06,128.3
Observed WS=U100-00-00      ,U100-00-00_0383 ,74841.23,0,122.33,124.72,125.81,128.14
Observed WS=U100-00-00      ,U100-00-00_0383 ,74744.11,0,122.14,124.52,125.61,128.01
Observed WS=U100-00-00      ,U100-00-00_0383 ,74216.28,0,120.94,123.34,124.45,127.08
Observed WS=U100-00-00      ,U100-00-00_0383 ,73387.53,0,119.24,121.75,122.92,125.82
Observed WS=U100-00-00      ,U100-00-00_0383 ,73275.78,0,119.19,121.7,122.87,125.84
Observed WS=U100-00-00      ,U100-00-00_0383 ,73218.35,0,118.99,121.47,122.64,125.11
Observed WS=U100-00-00      ,U100-00-00_0383 ,73088.5 ,0,118.78,121.25,122.43,124.88
Observed WS=U100-00-00      ,U100-00-00_0383 ,72791.48,0,118.31,120.76,121.95,124.36
Observed WS=U100-00-00      ,U100-00-00_0383 ,72607.04,0,117.78,120.26,121.49,123.87
Observed WS=U100-00-00      ,U100-00-00_0383 ,72031.7 ,0,117.22,119.82,121.05,123.57
Observed WS=U100-00-00      ,U100-00-00_0383 ,71937.8 ,0,117.13,119.75,120.98,123.52
Observed WS=U100-00-00      ,U100-00-00_0383 ,71849.88,0,117.06,119.69,120.92,123.45
Observed WS=U100-00-00      ,U100-00-00_0383 ,71778.68,0,117.01,119.64,120.87,123.4
Observed WS=U100-00-00      ,U100-00-00_0383 ,71758.34,0,116.99,119.63,120.85,123.38
Observed WS=U100-00-00      ,U100-00-00_0383 ,71756.49,0,116.99,119.63,120.85,123.38
Observed WS=U100-00-00      ,U100-00-00_0383 ,71618.56,0,116.2,118.84,120.06,122.83
Observed WS=U100-00-00      ,U100-00-00_0383 ,71580.98,0,116.16,118.8,120.02,122.8
Observed WS=U100-00-00      ,U100-00-00_0383 ,71474.76,0,116.05,118.69,119.92,122.71
Observed WS=U100-00-00      ,U100-00-00_0383 ,71377.24,0,115.94,118.59,119.82,122.64
Observed WS=U100-00-00      ,U100-00-00_0383 ,71022.41,0,115.56,118.23,119.47,122.35
Observed WS=U100-00-00      ,U100-00-00_0383 ,70575.73,0,115.03,117.75,119,121.91
Observed WS=U100-00-00      ,U100-00-00_0383 ,70200.7 ,0,114.58,117.34,118.6,121.54
Observed WS=U100-00-00      ,U100-00-00_0383 ,69460.43,0,113.97,116.73,117.99,120.9
Observed WS=U100-00-00      ,U100-00-00_0383 ,69001.19,0,113.66,116.4,117.65,120.53
Observed WS=U100-00-00      ,U100-00-00_0383 ,68180.03,0,112.96,115.64,116.87,119.76
Observed WS=U100-00-00      ,U100-00-00_0383 ,67130.95,0,112.36,115.05,116.27,119.16
Observed WS=U100-00-00      ,U100-00-00_0383 ,66957.83,0,112.21,114.89,116.1,118.95
Observed WS=U100-00-00      ,U100-00-00_0383 ,66850.04,0,111.93,114.57,115.77,118.57
Observed WS=U100-00-00      ,U100-00-00_0383 ,66665.68,0,111.75,114.38,115.57,118.36
Observed WS=U100-00-00      ,U100-00-00_0383 ,66117.75,0,111.21,113.81,114.98,117.73
Observed WS=U100-00-00      ,U100-00-00_0383 ,65911.57,0,110.89,113.46,114.62,117.3
Observed WS=U100-00-00      ,U100-00-00_0383 ,65193.2 ,0,110.14,112.7,113.81,116.41
Observed WS=U100-00-00      ,U100-00-00_0383 ,64572.4 ,0,109.57,112.13,113.21,115.76
Observed WS=U100-00-00      ,U100-00-00_0383 ,64058.53,0,109.33,112,113.13,115.75
Observed WS=U100-00-00      ,U100-00-00_0383 ,63538.9 ,0,108.67,111.35,112.47,115.04
Observed WS=U100-00-00      ,U100-00-00_0383 ,63161.89,0,108.43,111.12,112.24,114.76
Observed WS=U100-00-00      ,U100-00-00_0383 ,62946.27,0,108.3,110.99,112.11,114.6
Observed WS=U100-00-00      ,U100-00-00_0383 ,62063.01,0,107.95,110.64,111.75,114.3
Observed WS=U100-00-00      ,U100-00-00_0383 ,61771.35,0,107.84,110.52,111.63,114.18
Observed WS=U100-00-00      ,U100-00-00_0383 ,61237.47,0,107.64,110.31,111.42,113.96
Observed WS=U100-00-00      ,U100-00-00_0383 ,60580.55,0,107.49,110.16,111.27,113.85
Observed WS=U100-00-00      ,U100-00-00_0383 ,60029.36,0,107.28,109.91,111.02,113.59
Observed WS=U100-00-00      ,U100-00-00_0383 ,59531.67,0,107.13,109.73,110.83,113.45
Observed WS=U100-00-00      ,U100-00-00_0383 ,59431.11,0,107.1,109.7,110.8,113.43
Observed WS=U100-00-00      ,U100-00-00_0383 ,59303.02,0,107.06,109.65,110.75,113.39
Observed WS=U100-00-00      ,U100-00-00_0383 ,59170.38,0,106.56,108.95,109.94,112.96
Observed WS=U100-00-00      ,U100-00-00_0383 ,59048.18,0,106.22,108.55,109.53,112.39
Observed WS=U100-00-00      ,U100-00-00_0383 ,58916.32,0,106.14,108.48,109.46,112.34
Observed WS=U100-00-00      ,U100-00-00_0383 ,58763.71,0,106.04,108.39,109.38,112.29
Observed WS=U100-00-00      ,U100-00-00_0383 ,58379.91,0,105.86,108.17,109.16,112.04
Observed WS=U100-00-00      ,U100-00-00_0383 ,58217.4 ,0,105.78,108.08,109.06,111.83
Observed WS=U100-00-00      ,U100-00-00_0383 ,58077.66,0,105.59,107.86,108.82,111.12
Observed WS=U100-00-00      ,U100-00-00_0383 ,57389.92,0,105.2,107.37,108.3,110.56
Observed WS=U100-00-00      ,U100-00-00_0383 ,57319.71,0,105.2,107.39,108.34,110.63
Observed WS=U100-00-00      ,U100-00-00_0383 ,56824.9 ,0,104.97,107.13,108.08,110.34
Observed WS=U100-00-00      ,U100-00-00_0383 ,56770.67,0,104.95,107.11,108.05,110.32
Observed WS=U100-00-00      ,U100-00-00_0383 ,56407.3 ,0,104.81,106.94,107.87,110.16
Observed WS=U100-00-00      ,U100-00-00_0383 ,56080.86,0,104.72,106.81,107.75,109.97
Observed WS=U100-00-00      ,U100-00-00_0383 ,55795.19,0,104.64,106.69,107.61,109.85
Observed WS=U100-00-00      ,U100-00-00_0383 ,55639.65,0,104.6,106.63,107.55,109.78
Observed WS=U100-00-00      ,U100-00-00_0383 ,55604.97,0,104.59,106.62,107.54,109.76
Observed WS=U100-00-00      ,U100-00-00_0383 ,55455.98,0,104.55,106.56,107.47,109.68
Observed WS=U100-00-00      ,U100-00-00_0383 ,55208.76,0,104.49,106.47,107.37,109.55
Observed WS=U100-00-00      ,U100-00-00_0383 ,54863.05,0,104.4,106.34,107.22,109.37
Observed WS=U100-00-00      ,U100-00-00_0383 ,54591.68,0,104.35,106.26,107.14,109.26
Observed WS=U100-00-00      ,U100-00-00_0383 ,54446.93,0,104.32,106.22,107.09,109.2
Observed WS=U100-00-00      ,U100-00-00_0383 ,53835.61,0,104.2,106.05,106.9,108.95
Observed WS=U100-00-00      ,U100-00-00_0383 ,53287.78,0,103.93,105.64,106.46,108.41
Observed WS=U100-00-00      ,U100-00-00_0383 ,52978.66,0,103.77,105.42,106.24,108.29
Observed WS=U100-00-00      ,U100-00-00_0383 ,52832.13,0,103.62,105.23,105.93,107.6
Observed WS=U100-00-00      ,U100-00-00_0383 ,52321.22,0,103.53,105.11,105.79,107.38
Observed WS=U100-00-00      ,U100-00-00_0383 ,51460.62,0,103.42,104.98,105.66,107.25
Observed WS=U100-00-00      ,U100-00-00_0383 ,51306.21,0,103.38,104.93,105.61,107.2
Observed WS=U100-00-00      ,U100-00-00_0383 ,51255.05,0,103.37,104.92,105.6,107.19
Observed WS=U100-00-00      ,U100-00-00_0383 ,51230.64,0,103.36,104.92,105.6,107.19
Observed WS=U100-00-00      ,U100-00-00_0383 ,50649.96,0,103.28,104.83,105.51,107.08
Observed WS=U100-00-00      ,U100-00-00_0383 ,50060.86,0,102.83,104.36,105.04,106.62
Observed WS=U100-00-00      ,U100-00-00_0383 ,49388.92,0,102.79,104.29,104.97,106.53
Observed WS=U100-00-00      ,U100-00-00_0383 ,48823.23,0,102.75,104.24,104.91,106.45
Observed WS=U100-00-00      ,U100-00-00_0383 ,47982.29,0,102.59,104.05,104.7,106.24
Observed WS=U100-00-00      ,U100-00-00_0383 ,46816.39,0,102.31,103.72,104.38,105.91
Observed WS=U100-00-00      ,U100-00-00_0383 ,46039.27,0,102.19,103.57,104.22,105.73
Observed WS=U100-00-00      ,U100-00-00_0383 ,44920.4 ,0,102.06,103.39,104.02,105.5
Observed WS=U100-00-00      ,U100-00-00_0383 ,43528.58,0,101.68,102.92,103.52,104.94
Observed WS=U100-00-00      ,U100-00-00_0383 ,42339.98,0,100.94,102.2,102.82,104.27
Observed WS=U100-00-00      ,U100-00-00_0383 ,41257.1 ,0,100.1,101.45,102.13,103.62
Observed WS=U100-00-00      ,U100-00-00_0383 ,40140.33,0,99.61,101.02,101.76,103.27
Observed WS=U100-00-00      ,U100-00-00_0383 ,39113.75,0,98.76,100.39,101.21,102.75
Observed WS=U100-00-00      ,U100-00-00_0383 ,38317.03,0,97.6,99.9,100.8,102.4
DSS Import StartDate=
DSS Import StartTime=
DSS Import EndDate=
DSS Import EndTime=
DSS Import GetInterval= 0 
DSS Import Interval=
DSS Import GetPeak= 0 
DSS Import FillOption= 0 
