Geom Title=U100-00-00 2019
Program Version=4.10
Viewing Rectangle= 2987590.31968203 , 3045232.98150278 , 13901486.8873106 , 13843350.0331318 

River Reach=U100-00-00      ,U100-00-00_0383 
Reach XY= 2157 
2990134.08552952 13900916.9181522990114.6193611213900884.8565364
2990108.8943069413900851.64990992990111.1843286213900705.0826177
2990113.4743502713900574.54613342990111.7610991213900382.2092477
2990133.5031816113899998.00233892990141.9985714413899766.9962393
2990147.2495451913899735.99761362990174.6566426213899701.7047032
2990211.5968574413899670.92130022990226.9882308513899647.3209537
2990225.9623142813899606.27641632990222.8839083613899577.5451746
2990231.0928814413899357.95735922990147.9778901913899194.8057826
2990105.2712826913899150.15856222990102.2509475213899147.0010882
 2990102.253572213899146.92759752990132.2499032813898352.0000535
2990139.2482488613898192.6014222 2990139.509403213898186.6542556
2990143.2295401113898031.2031229 2990151.924732713897836.3747724
2990156.2724930213897705.1306124 2990165.239666713897501.8783942
 2990172.847919213897364.11292172990179.6412126913897158.6868234
2990183.4453389513897073.90812152990186.1625251213896967.9345802
 2990187.249465213896894.56825712990191.05359145  13896821.74524
 2990194.314411713896761.42186992990191.9515555213896725.3409053
2990196.9328447713896713.87898592990197.1264139413896679.1070739
2990200.94694436 13896667.2101162990202.7527150213896539.3028915
2990207.5643851913896535.07980292990214.2520358613896265.9973358
2990215.7540013613896256.9271439 2990217.645073713896208.2507321
 2990223.202149213896065.20443032990230.1046944413895888.8734181
2990230.9242466113895867.93546792990234.5850004413895815.9792069
2990242.3976488613895759.55576332990250.03214803 13895741.341889
2990259.75850652 13895733.9482032990288.3493286113895731.0026709
2990311.4992166913895731.00267092990821.7521331913895750.0000082
2991961.4995256113895790.00058432992596.8601315313895815.5300609
2993281.0004955213895835.99983622993847.7490339413895855.0024229
2994285.0020964413895877.00008232994692.9993119413895889.0007144
 2995084.501153613895897.99807182995511.0012848713895917.0009865
2996220.0018353613895948.99993832996918.0014236113895969.9979278
2997541.2501771213895998.99786982998223.49815644 13896023.998804
2998785.2483452713896038.99844592999486.7512073713896065.9990481
3000150.0005370213896090.00031243000650.4575413613896105.5901763
 3000709.257948713896102.71879093000720.2956562813896098.8713577
3000731.0023277713896067.99674753000744.7483632713895594.9990059
3000754.5173726113895316.16491793000764.7532445313895024.0001478
3000778.4992800213894603.99639473000792.2538456913894260.9974088
3000793.7256275313894023.41553493000793.9661126113894015.4778867
3000800.3968740313893870.49786173000810.6599768513893639.1699123
3000814.9483541113893551.55460193000865.4197098613893552.5188389
3001104.3739563713893557.08510273001215.2894169413893562.9226894
3001311.4575316913893567.83869013001363.0745544413893567.8386901
 3001459.549755213893572.44727673001500.1061045213893576.4413632
3001634.0651541913893577.97777743001669.0913308613893580.7428638
 3001816.529356213893583.52993173001817.4269921913893583.5620839
3001831.3662687813893584.05847393001936.7020161213893587.8094507
3001977.8731936113893593.33995143002026.1106299513893593.6470374
3002089.40315428 13893597.948538 3002195.095528213893601.6355385
 3002316.150404213893606.55153923002451.6458681113893608.7021254
3002585.6049177813893612.38912593002621.2452664413893618.2267127
 3002694.369792113893619.45571293002895.0012806113893627.4442139
3003160.1539655313893632.05280053003303.0234304413893642.8063879
3003363.8579544413893642.19188793003398.57671703 13893650.794889
3003435.9263798613893645.34837763003436.8541995313893645.2132073
3003463.0982415213893637.89038733003510.2677666113893649.2761913
3003525.4691797813893652.94547533003590.6580257713893653.0662099
 3003590.836831213893652.87329693003709.8165801213893524.5169263
3003794.3088651913893446.78381413003906.7607400313893341.0914402
3003956.2275046113893291.01017553004087.1140538613893161.0455404
3004189.2483640313893046.00049493004235.7679560313892958.1988333
3004235.8381658613892958.06563143004301.7071286113892831.9123404
3004303.7481350313892827.99765013004386.6784153613892747.1854758
3004478.3176677813892679.56487613004510.8057917813892667.3017773
3004621.4141663613892633.81201483004677.6401037713892623.9800135
3004852.7700028613892579.42957773005072.1432517813892520.4382259
3005159.7083653713892486.33396333005201.69712652 13892475.202752
3005213.7466431113892473.00328143005251.4975518613892462.0003506
3005296.1775806113892442.20872353005384.6121150313892417.2038523
3005442.9889667813892396.31117753005488.6876942813892376.6901538
3005518.4970178613892365.9992303 3005569.746259213892344.0038674
3005606.7497941113892325.99898223005646.4987303613892295.9993703
 3005685.167288213892274.14639563005756.9991655213892241.9968536
3005763.5486931113892238.58675543005809.5328531113892224.5608649
3005854.5179993713892195.57142153005903.2426394413892191.6856025
3005913.6891408613892183.69710143005951.4804038613892165.5698411
3005980.0541656213892155.73783983006009.5498415213892144.6768383
3006040.2974834413892115.84454693006073.4568659413892111.8015759
3006122.3088023713892111.49448993006150.5754781113892123.1696634
3006159.4855652813892142.83366613006180.5002870313892150.9999883
3006215.2505456113892168.9989681 3006262.248811213892174.0032232
3006281.3954264413892174.93662033006287.6070281913892178.1666007
3006341.7621036213892185.39427653006361.8122603613892174.9572895
3006369.5025336913892158.75226943006403.0109968613892152.7099587
3006423.2481611113892142.99836393006444.4981186113892119.0010366
3006451.7481041113892094.00010243006485.3143099413892071.6218663
3006518.3483646113892063.87155373006543.5425399413892051.8889661
3006591.4728902713892017.47728953006629.8786533613891999.3497011
3006654.4442210213891989.4589729 3006630.3937442  13891958.76284
3006612.5404334413891927.9033217 3006587.269814713891901.2741099
3006558.73837569 13891874.3732453006553.1025601913891858.2843664
3006555.2059024413891838.50520653006598.6680858613891800.8947174
3006630.8947274413891774.03945623006656.2850966213891755.4847033
 3006676.792929613891740.83611053006697.3007626113891728.6291139
3006712.4375433613891725.69932983006735.3866444413891715.9339294
 3006760.289153713891701.77385273006793.4921712713891684.1954758
3006815.4648963713891666.6174269 3006842.320485713891638.2972736
3006860.8749105313891610.46498023006876.98839536 13891585.074611
3006895.0546321913891559.19572583006909.7032249413891538.6878928
3006929.2343538613891516.71516773006953.1601590213891493.2775505
3006979.0390442813891474.23460963007001.4999573513891458.6096409
3007021.0314143613891445.42594023007048.8633796913891429.3127834
3007073.2773728713891415.15270683007102.0860422713891393.6681697
3007126.0118474413891376.09012093007151.8907326913891348.2581555
3007170.4454856113891329.70340263007194.3712907713891301.8714373
3007212.9257156113891275.5040359 3007243.199277113891239.8597503
3007268.58997436 13891214.9572413007294.4688596113891192.0081399
3007305.6991521113891177.84806333007322.3008249413891165.6407386
 3007347.203334213891148.55087783007365.7577590213891130.4846409
3007399.4492926913891109.48861993007434.6053903613891093.3751351
3007478.5508405313891071.89092613007508.3358859413891063.1019017
3007530.7967990313891061.14882163007555.2111202813891060.1721175
3007569.3711969413891055.77744133007588.4141378613891047.4769329
 3007605.503998713891046.98841693007633.82415202 13891049.918201
3007655.3086891213891045.52385293007674.35163003 13891048.941825
3007691.44149086 13891049.4300133007728.0624806113891038.6879085
3007765.6601744413891024.52750383007854.0392627713890990.3477821
3007946.8126992713890958.12146863008102.6430962813890890.4162234
3008165.9861454413890866.46942093008237.9807521113890854.8821738
3008276.9134170313890844.84019913008323.8801866213890830.7811721
3008360.8043253613890824.13781273008413.0886696113890819.6027168
3008469.0783870213890813.74347653008501.6304872813890813.0922311
3008584.3127366213890816.34747393008632.4898056113890815.0453112
3008670.2502287813890820.25363413008696.2918433513890820.2536341
3008717.7763804513890815.69655663008753.5833954413890798.1181797
3008786.1354956913890787.05061653008835.6147274413890785.0975364
3008872.7242332713890790.95677673008902.0210906913890802.6755853
 3008931.3179481 13890818.3005543008956.0573999413890835.2276855
3008978.1928543613890842.3890885 3009013.349280113890846.9464941
3009064.1303465213890850.85265433009161.7866472813890857.3631399
3009237.3074936113890863.8736256 3009325.848983213890869.0819485
3009394.8596719513890872.33719143009455.4064668613890872.9881087
3009484.7033242713890872.98810873009555.6667650313890869.7328659
3009594.90225086 13890874.7531973009603.1420637813890873.3109427
3009606.6440252813890868.1613467 3009616.531472713890866.1013114
3009635.4828783613890861.15742373009645.1646175213890859.0973884
3009652.7866495313890863.21745893009657.3184646113890863.4234953
 3009668.236093713890860.95138733009671.5320188613890858.0675348
3009707.5808312713890856.00749963009725.0903106913890851.8877572
3009749.6033850313890846.94386943009773.0869338713890844.4720896
3009789.1541589513890843.03016333009804.3978948613890841.9999817
3009831.3830771113890841.99998173009846.8325212713890839.9402745
3009864.3420006913890834.58431413009890.7090739513890832.5242788
 3009906.158846213890831.70046163009922.63814394 13890830.052499
3009935.6158082813890827.37435483009949.0052171913890826.7565739
3010007.9194694513890826.75657393010020.0733165313890828.4045364
3010028.3128013613890827.99246383010033.2566891213890827.9924638
3010038.8186858613890827.99246383010042.5263556113890829.6404264
3010068.2756479413890830.67027993010090.52297878 13890830.052499
3010102.2647531913890827.78642743010114.2122358513890825.9324285
3010130.6918616913890824.90257493010146.9651231213890823.8727214
3010149.4372310313890819.54661453010152.3210835313890816.2510174
3010157.6770439413890814.19098223010165.0927115213890817.6929437
3010173.7445971113890818.10468833010201.7596329513890808.0112045
3010221.1231112813890799.77139163010242.95836945 13890791.119506
3010282.5091433713890782.26191223010314.2321770313890775.6700619
3010334.41947261 13890772.5801733010365.3186890313890771.5503194
3010389.2136543513890771.13824683010414.5508740213890765.3705418
3010444.4202368613890757.13072893010494.4765671913890741.8869929
3010512.1920829413890735.50117893010527.8475634513890729.3214013
3010552.1549295313890721.28762473010566.3684837813890718.1977358
3010587.5856329513890714.49006613010613.1288889513890711.8119218
3010643.2039600313890710.98810463010656.7994052813890713.2541762
3010673.8971401213890713.66592083010687.6986216913890713.2541762
3010696.5562155213890716.13802873010703.7661748513890719.6399902
3010716.1257301913890722.93558733010739.6089509413890723.5536963
3010764.9461706113890723.14162363010788.84146403 13890721.493661
3010812.7367574413890717.37391863010840.75179328 13890709.340142
3010858.4673090313890704.60229063010889.1604891113890700.0704755
3010905.6397868513890695.74469683010922.5314853613890689.7706273
3010944.57277986 13890683.7968863010972.5878156913890678.4412537
3010995.8650001113890674.5272195 3011019.142512613890672.2611479
3011034.5919567813890671.43733073011045.7156221913890668.5534782
3011057.8691411913890665.46358943011066.3149904513890665.0515167
3011077.4386558513890663.8156268 3011089.180102213890662.7854451
3011112.6636510313890662.57973693011167.0457601113890660.9317743
3011181.0532780313890660.9317743 3011264.480932713890666.6994793
3011295.7918936913890670.61318533011319.4811507813890672.2611479
3011336.1664848613890675.14532853011358.4138156913890682.3549598
3011405.9983661913890700.07047553011445.5491401113890716.1380287
3011487.5720219513890734.05925273011526.7107231913890751.5687321
3011562.1417546913890766.40039533011592.2168257813890774.8462446
3011599.8385296913890780.8199859 3011605.606234713890785.5578374
3011614.2581202813890786.58769093011621.2617151913890790.5017251
3011627.0297482813890794.41543123011640.6251935213890794.8275038
3011653.6028578613890801.00728153011675.8501886913890805.7451329
3011694.5955580313890807.80516823011720.5508866913890809.6591671
3011735.3822218613890809.45313083011754.5396638713890808.2172409
3011774.9329957813890803.68509773011793.6786931913890796.6815028
 3011824.989654213890788.23565353011853.6227990213890778.1421698
3011879.7838359513890766.40039533011902.4432394513890750.5388785
3011910.2709796913890744.77117353011919.95271885 13890740.651103
3011956.6196402813890715.93199243011977.21900852 13890696.568514
3011988.9604548713890683.17910513012018.00567237 13890659.489848
3012035.1030791113890645.27596573012082.3723415313890599.1412154
3012118.8306019513890573.09960093012159.8462679413890563.3338723
 3012216.486902713890565.93819793012277.0336976113890573.7505182
3012325.8620120313890575.05268093012383.1535641113890565.2869524
3012428.07539028 13890550.3129013012534.8461741113890511.9015605
3012612.3201005313890483.25562043012683.9347866913890447.4486054
3012741.8775841913890408.38601953012764.6639559413890379.7400794
3012799.8200536113890330.91209313012834.9764793713890272.9692956
3012847.3462052813890233.90670973012854.5076082813890181.8234805
3012859.0650138613890146.66705483012859.0650138613890090.6776654
 3012857.7628511 13890047.0580023012852.5545281913890021.6673048
3012851.2523654413890000.83401313012853.85669094 13889972.188073
3012857.1119337813889942.23997023012852.5545281913889922.0579239
3012853.8566909413889888.8545783 3012850.601448113889859.5577209
3012846.6952879413889834.16735173012847.99712262 13889808.125409
3012849.9505307813889782.73503983012852.5545281913889763.2035829
3012852.5545281913889732.60456273012857.1119337813889708.5160282
3012857.0663301913889706.01504893012856.4606883713889672.7090132
3012851.2523654413889654.47971893012853.85669094 13889615.417133
3012857.1119337813889594.58384143012861.6690112813889577.0057925
3012863.62241945 13889545.7558553012873.3878198613889520.3651578
3012896.17451969  13889456.563123012920.2630541913889396.6672424
3012945.0025060313889364.7660595 3012968.440123213889328.9590445
3012999.6900606913889297.70877893013045.9140496113889259.2974384
 3013076.512741713889238.46414683013102.5546843613889220.8860979
3013131.2002963613889207.86512663013144.8721850213889194.1932379
3013156.5909936113889197.44848083013174.8202878513889192.2401579
 3013216.486871213889172.70902893013261.4086973713889154.4797347
 3013291.356800213889139.50568333013359.0649981113889110.8600713
3013422.86703587 13889085.4693743013449.5598958613889071.1462399
3013482.7629134513889058.12559673013502.2940423613889055.5212712
3013518.5702565313889048.3598682 3013556.330679713889027.5265765
 3013577.8148887 13889017.7608483013604.5077486913889002.7871247
3013639.6638463613888983.90691313013702.8149667813888943.5421644
3013733.4139869413888920.75579273013756.2003586913888903.1777439
3013776.3827330313888887.55277513013802.4243476113888866.7191554
3013838.2316906913888837.42229793013877.94519395  13888796.40696
3013885.7578423613888785.98998613013885.7578423613888775.5733403
3013890.3149198613888767.10977453013904.63805394 13888755.391294
3013930.6796685313888731.95367683013943.0493944413888718.2817882
3013961.9296060213888691.58892823013978.8567375213888662.9433162
3013994.4817062813888640.80786183014008.8045122813888619.9745701
3014017.9189953713888610.20884163014028.3359692813888595.8860356
3014032.2421294513888581.56290153014038.7526151113888564.6360981
3014045.2627726913888545.10464113014049.8201782713888532.7349152
3014060.23682411 13888521.6673523014076.5130382813888500.1828149
3014085.6275213713888476.09428043014104.5077329413888434.4276971
3014118.1796216113888410.33916263014132.5024276113888386.9015454
3014150.7317218613888360.20901353014179.3773338613888320.4951822
3014219.7420825213888272.96935863014273.7783917813888212.4225637
3014315.4453031913888169.45381763014368.1794496913888124.5316634
3014405.2889555213888090.67772843014449.5598643613888062.6827057
3014460.6274275313888054.21913993014460.6274275313888047.7089823
3014466.0296476913888048.91009543014471.6782584513888049.1705936
3014479.9341474513888046.65058553014495.4029485313888038.9160209
3014506.1791736913888031.35534053014521.2132643613888020.2316751
3014530.2513040313888012.6713228 3014562.5412657 13887993.459747
3014582.2170793613887981.88562323014591.8666663613887979.1835289
3014600.5182238713887976.24783923014621.0660830313887964.8154473
3014651.9652994413887948.90242143014655.82749644 13887947.357477
3014666.3333809413887942.56811653014672.3586313613887938.8601187
3014675.9117738613887941.17769943014680.3924079413887939.0146459
3014681.3192433613887936.54286613014691.2070188713887933.4529773
3014696.9232147813887930.82634213014703.1029924513887929.1268704
3014718.8614911113887921.86573013014728.4402121213887916.3037333
3014732.3027371913887915.84047973014734.7745170313887915.6859524
3014739.25482303 13887913.5228993014753.0051236213887905.3345952
3014767.8364587713887897.3008186 3014781.123177613887888.0311521
 3014815.432492213887874.85335693014852.0538100313887866.5525205
3014999.0262851113887797.70488923015024.4169823713887785.0097046
3015059.5730800313887767.91984383015088.3817494413887738.6229863
3015113.28425869 13887712.2555853015117.3154186213887704.1506144
3015117.6379245213887698.1850751 3015116.595275713887691.6670435
3015113.7924597713887680.91279993015113.5778932713887674.8268541
3015113.5021060313887672.43578283015115.3098451913887657.7136994
 3015115.675986213887646.36103183015118.2396293613887637.2058664
3015119.3380523613887617.79645643015117.5070192813887600.5845485
3015109.8167459413887577.8795414 3015105.422069713887557.0055674
3015104.0775841913887540.40126993015102.8587546113887530.2720251
3015098.8302193613887526.97609993015099.5628294513887521.8491417
 3015103.591036613887515.98990143015105.05592869 13887507.200877
3015114.9437041913887492.55228433015123.3665876113887482.6648369
3015136.87607503 13887471.6812633015143.5968621113887460.9050379
3015149.1585307713887452.44672143015152.0555066213887445.4943075
3015155.99513128 13887437.0356633015156.45838495 13887431.126226
3015153.4459237813887426.95497453015150.6650894413887424.2899536
3015151.5919248613887421.04553753015155.8789897713887418.1485617
3015158.1965704413887415.48354083015157.9649436213887407.9520598
3015156.3425715313887400.42025073015159.0778022713887390.4898244
3015159.0778022713887383.16536393015161.2749763613887375.4750906
3015169.3317187713887368.15095833015181.9940950313887364.5646794
3015189.47341077 13887363.3901413015203.3893934513887357.1644317
3015220.6013012813887344.34720013015241.1091342713887329.3324663
3015253.1940838513887320.54344193015266.0113154513887320.5434419
3015270.4059916913887312.12055853015277.5057150313887300.9985335
 3015313.252034613887279.00251453015345.7506572813887263.9986075
3015357.7667093613887260.51108173015362.4041672813887261.6633103
3015371.7899752713887262.09769273015379.26338553 13887261.315542
 3015383.521907213887256.97040643015394.73251469 13887247.150216
3015404.5523769413887239.15515333015408.8332082813887235.1768148
3015413.3650233613887228.58529253015419.1330564513887221.7874058
3015429.43257652 13887211.6935943015439.1143156913887202.6299638
 3015444.882020713887195.2142963 3015448.383982213887184.0906309
 3015456.0056861 13887173.9968193015462.5975364413887166.7871878
 3015471.043385713887159.3711921 3015477.429199713887149.8954893
 3015478.046980613887145.98178323015475.4370776913887135.7993889
3015492.0023332813887110.00154023015523.6266138613886907.1945311
 3015523.627926213886907.17681463015523.6167713613886897.1751942
3015522.6899359413886888.21425413015520.9904642713886880.9531138
3015524.5439348713886874.00069983015526.5521329513886868.5935584
 3015526.706660213886863.34061623015525.3162430213886858.7057829
3015520.9904642713886853.76189523015519.4455198613886846.5007548
3015521.1449915313886836.45845213015523.3080449413886831.2055099
3015528.2516046213886826.5706766 3015534.212550713886825.2678577
3015541.0747416913886824.56215043015544.7827395213886821.0090079
3015544.1646305313886816.99195563015542.0019051913886813.1297586
 3015537.310969713886800.80202743015535.8221275213886791.9637904
3015539.6150989413886782.60915043015544.3191577813886773.5789847
3015550.6534626913886764.15479093015554.9795695213886755.8119598
3015555.1337686913886749.94123673015560.0776564513886744.9973489
3015561.3138744413886742.06165933015558.0694583713886743.9156582
3015554.2069332713886744.2247127 3015551.271571713886741.9074601
3015549.7266272813886730.32021293015547.1124592713886723.4084814
3015551.8962423713886685.63263833015577.49724102 13886483.482452
3015571.6865571113886459.74890373015576.8948800313886417.2142119
3015581.2350944413886386.83205483015584.7072003613886354.7140088
3015589.0477428613886336.48504263015598.5588786913886317.1743857
3015590.7836317713886295.68623973015595.1241742813886277.4572735
3015598.5962801913886261.83197673015601.2002776113886239.2627961
3015604.6727116113886214.95707043015608.1448175313886188.0473474
3015609.0129260313886172.42237863015618.0250471113886163.4653755
3015640.4997396913885985.99788273015670.9993506113885814.9978966
3015686.7509595313885710.99941693015710.2486159513885644.0025037
3015752.2482038613885589.99736233015839.2477017813885523.9997909
3015919.0014792813885477.00119733016097.2514508713885353.9998029
3016321.7480491113885185.99882653016570.4982077813885015.9988384
3016633.50037836 13884965.0012373016677.0002913613884906.0016831
3016720.9998752813884841.99984263016733.7482093613884802.9986083
3016737.9991851213884738.00103493016719.0005354413884558.9994244
 3016714.749559713884528.00014253016702.2492566113884503.9988782
3016691.2522313613884477.99794593016691.2519032813884407.9967736
 3016707.999573213884328.99988443016747.5004784513884226.0010746
3016940.7500919413883773.00034023017089.25241961 13883417.000396
3017227.5014869413883076.00042193017274.5000806213882950.0000177
3017306.9990313613882863.00019173017358.24794461 13882785.997721
3017419.4994625313882736.99978753017486.0006418713882718.0011379
3017572.5004688713882709.99951343017930.9994237713882738.9991274
3017995.7492942813882742.00240223018061.7517869513882735.0007758
3018115.2470867813882727.99914943018162.4983046113882711.9988533
3018240.0007742813882678.00023363018263.0023686913882664.0002616
3018283.0006882713882636.00031763018299.7477020313882612.9987232
 3018327.000272213882593.00040363018364.9975715313882554.9988392
3018382.2485212813882524.9995553 3018392.749812613882483.9989812
3018389.4985067713882410.99945533018400.9994680313882298.9990231
3018426.5004012713882200.99856293018484.9996281113882109.0003874
3018538.7485363613881954.00004123018527.2528244413881803.6752106
3018527.2505278613881803.66536813018516.2800773513881777.7011812
3018500.5330616113881738.88301733018487.7158300313881707.0225168
3018465.3769639413881643.66798473018458.0525035313881619.1319445
 3018451.4606532 13881587.6379133018439.7421726913881545.8896369
3018407.14939012 13881423.2091083018401.2898217713881404.8984491
3018396.5293326113881377.79876583018390.3036232713881339.7128839
3018386.2754161113881318.47276893018379.0953123613881246.4860363
3018378.8836986113881244.34594873018369.4296492813881208.2433306
3018366.8660061113881165.03049053018365.7675831213881113.0282979
3018364.6688320313881090.68943183018362.8377989413881076.7734492
3018362.1051888613881067.25214283018366.1337241113881054.8007241
3018370.5280722813881039.42017743018374.1904665213881006.0947848
3018379.3174247713880966.54401083018381.8807398713880935.0499794
3018389.2048721913880902.45719683018391.40237436 13880887.076322
3018388.1064491913880872.79419833018391.7685153613880859.6104977
3018396.5293326113880831.41206333018402.75471386 13880804.312708
 3018409.712705213880772.81834843018418.1355886213880746.0851342
3018428.0233641113880713.12621063018434.2487453713880695.5478337
3018450.7283711913880651.60271163018469.0774158513880604.1700637
3018480.1147953613880575.63895283018513.2518681913880486.0010087
3018527.5513802813880438.10149823018552.2908321213880391.2265919
3018571.1710436913880361.2788172 3018588.098175213880328.7267169
3018601.7700638613880312.45050283018614.79103519 13880296.825534
 3018634.322164113880272.0860822 3018648.644970113880252.5546252
3018683.1501504513880214.14328473018706.5877676213880184.8464273
 3018728.072304713880162.71097283018752.8117565213880136.0184409
3018772.9941308613880119.74222683018808.8014739513880087.8413719
3018846.5615690213880050.08094883018866.74394336  13880034.45598
3018871.9522662813880031.20073723018875.8587545313880025.9924143
3018894.0877206913880012.32052563018929.8950637713879984.3255029
3018969.6085670313879949.16940523019016.4834732713879910.1068193
3019057.4991392813879879.5077991 3019086.795996713879853.4661845
3019114.7910194413879826.12240723019162.3168430313879785.7579866
3019205.9368345313879749.95064353019245.6503377713879721.3047034
3019281.4576808713879693.31000883019319.8690213613879662.0600713
3019360.2334419513879624.95056543019397.9833664413879591.4322598
3019401.9977941113879585.99788743019430.4977371113879555.9982755
3019462.7486568513879533.00094623019486.2502502813879516.0016364
3019505.2488999413879493.99971193019529.2501642713879477.0007301
3019554.9988004413879459.0017504 3019580.751701713879450.0001279
3019610.7513136113879434.00081613019631.7181351913879427.0339665
 3019650.601627613879411.4411499 3019658.995639713879407.5356459
3019682.9309592813879399.87424393019699.0027775313879394.0537175
 3019709.223885713879390.35195333019734.80126236 13879367.984872
3019758.2497062813879344.00198033019793.4609219413879326.2677639
3019832.6455548613879300.99944173019863.77344535   13879287.4496
3019893.0703027713879277.5618245 3019912.845525713879264.0119829
 3019924.751013713879250.00052793019955.49799944 13879220.000916
3020001.2492202813879193.00064193020043.5014323613879171.0026544
3020043.5509729413879170.98953113020102.1108951913879159.0997911
3020143.1265611913879141.52174233020178.7708468613879121.5020973
3020202.6966520313879100.01788833020208.9988047813879064.0008999
3020219.0000971113879050.00092793020243.5013604513879035.0009579
 3020253.502324713879018.00164813020306.1662613613879027.6085843
3020359.1369559513879032.25522853020396.7740197813879035.5078467
3020462.2902929513878997.87078293020514.7960934513878975.1027838
3020611.4441941113878932.35450973020664.4148886913878912.3742347
 3020706.698268713878908.19248453020752.3271144513878907.5976694
3020757.5298599513878907.53008433020808.7098756913878897.9398804
3020865.14545836 13878877.0606573020879.1782386913878870.4714314
3020918.5807189513878851.96917183020962.7230191113878844.9993694
3021003.1478070313878831.05976483021010.5198395313878827.7927109
3021044.0374890313878812.93840993021064.1293123713878811.7205646
 3021090.038053213878810.1503578 3021154.390286713878823.7428503
 3021157.246252113878824.00072383021189.6746649413878825.8396309
3021227.7300350213878827.56994243021281.7391133613878811.8160369
 3021304.490052113878805.17989533021412.6601113513878796.0798479
3021554.0200648613878791.21010693021692.4827144413878797.2028771
3021944.21875952   13878802.41123022096.1285606913878807.6195229
3022203.9341193613878803.00273433022203.9971113713878803.0014219
3022295.9998801113878817.99581453022296.3125435313878817.9849878
3022380.8507602813878823.24449173022513.1359287813878817.9876124
3022513.5801536113878817.96989593022654.2918144513878812.2130177
 3022659.497512713878811.99976353022785.75054103 13878817.001722
3022843.7497688513878824.00039573022886.2500119513878827.9990754
3022926.4986191113878837.00069783022962.2485476113878840.9993774
3023005.8081717813878844.99936943023049.4855778713878837.1004351
3023077.7217418613878829.05419143023082.9300647813878827.5699424
3023112.1317780313878825.85176993023137.3098772813878824.3701456
3023188.4898930313878824.37014563023210.8054651913878825.8583316
3023236.4701120313878827.56994243023291.7200015313878844.8300784
3023329.2300971213878862.74999013023370.8100664513878862.7499901
3023415.5901606113878865.95011493023421.4667892813878866.9300998
3023453.9700051113878872.35003653023499.8672230213878880.9500849
3023505.2454931113878881.99995163023510.8215974413878882.6964725
3023553.12991178 13878888.3401623023573.2502783513878891.9992754
3023588.3201301113878894.74008363023590.2367929413878894.7594405
 3023643.003419713878895.29323213023692.4826514413878889.2168007
3023729.8090203613878880.5360438 3023774.948037713878855.3625377
3023779.2882521213878795.46666013023805.82002319 13878769.990005
3023857.0000389413878741.20003633023858.3487895313878740.4677543
3023902.5521131913878716.47370793023938.1422651113878696.5085247
 3024029.288080213878699.11252213024066.7932545213878715.7876856
3024066.85198145 13878715.8011373024100.4687121113878723.4182478
3024145.6077294513878710.39727643024196.0600563613878706.0199886
3024231.2401041113878709.22011343024282.4201198713878712.4199102
3024318.3508222713878723.41824783024353.0728656913878729.4946792
3024374.7742658613878734.70300213024406.9382435213878723.9815668
3024465.92008094 13878704.3208453024510.7041121113878685.1637311
3024511.5253046913878684.81235383024534.4629228613878683.3422124
3024579.8899973613878680.43014483024608.2813447713878691.3002018