Flow Title=Effective Floodway 2019 (Re-Study)
Program Version=4.10
Number of Profiles= 2 
Profile Names=100YR,FW
River Rch & RM=U102-01-00,U102-01-00_0006 ,9263.177
    1007    1007
River Rch & RM=U102-01-00,U102-01-00_0006 ,8301.525
    1068    1068
River Rch & RM=U102-01-00,U102-01-00_0006 ,7814.029
    1075    1075
River Rch & RM=U102-01-00,U102-01-00_0006 ,7757.207
    1129    1129
River Rch & RM=U102-01-00,U102-01-00_0006 ,7345.693
    1256    1256
River Rch & RM=U102-01-00,U102-01-00_0006 ,6456.532
    1433    1433
River Rch & RM=U102-01-00,U102-01-00_0006 ,5352.208
    1594    1594
River Rch & RM=U102-01-00,U102-01-00_0006 ,4464.653
    1812    1812
River Rch & RM=U102-01-00,U102-01-00_0006 ,3391.267
    1907    1907
River Rch & RM=U102-01-00,U102-01-00_0006 ,2965.148
    1951    1951
River Rch & RM=U102-01-00,U102-01-00_0006 ,2775.49 
    2021    2021
River Rch & RM=U102-01-00,U102-01-00_0006 ,2481.255
    2103    2103
River Rch & RM=U102-01-00,U102-01-00_0006 ,2146.282
    2130    2130
River Rch & RM=U102-01-00,U102-01-00_0006 ,2041.704
    2389    2389
River Rch & RM=U102-01-00,U102-01-00_0006 ,1081.651
    2457    2457
River Rch & RM=U102-01-00,U102-01-00_0006 ,845.0081
    2542    2542
Boundary for River Rch & Prof#=U102-01-00,U102-01-00_0006 , 1 
Up Type= 0 
Dn Type= 3 
Dn Slope=0.0018
Boundary for River Rch & Prof#=U102-01-00,U102-01-00_0006 , 2 
Up Type= 0 
Dn Type= 3 
Dn Slope=0.0018
Observed WS=U102-01-00      ,U102-01-00_0006 ,9263.177,0,115.23,116.27
Observed WS=U102-01-00      ,U102-01-00_0006 ,8301.525,0,113.22,114.28
Observed WS=U102-01-00      ,U102-01-00_0006 ,7814.029,0,111.92,112.99
Observed WS=U102-01-00      ,U102-01-00_0006 ,7807.646,0,111.17,112.52
Observed WS=U102-01-00      ,U102-01-00_0006 ,7786.81 ,0,111.63,112.82
Observed WS=U102-01-00      ,U102-01-00_0006 ,7757.207,0,111.7,112.88
Observed WS=U102-01-00      ,U102-01-00_0006 ,7451.575,0,107.49,108.74
Observed WS=U102-01-00      ,U102-01-00_0006 ,7366.426,0,107.45,108.71
Observed WS=U102-01-00      ,U102-01-00_0006 ,7345.693,0,107.43,108.69
Observed WS=U102-01-00      ,U102-01-00_0006 ,6456.532,0,106.62,107.97
Observed WS=U102-01-00      ,U102-01-00_0006 ,5352.208,0,105.74,107.14
Observed WS=U102-01-00      ,U102-01-00_0006 ,4464.653,0,105.2,106.54
Observed WS=U102-01-00      ,U102-01-00_0006 ,3391.267,0,104.49,105.67
Observed WS=U102-01-00      ,U102-01-00_0006 ,2965.148,0,104.22,105.37
Observed WS=U102-01-00      ,U102-01-00_0006 ,2775.49 ,0,104,105.19
Observed WS=U102-01-00      ,U102-01-00_0006 ,2481.255,0,103.78,104.97
Observed WS=U102-01-00      ,U102-01-00_0006 ,2146.282,0,103.63,104.81
Observed WS=U102-01-00      ,U102-01-00_0006 ,2041.704,0,103.58,104.76
Observed WS=U102-01-00      ,U102-01-00_0006 ,1081.651,0,102.51,103.71
Observed WS=U102-01-00      ,U102-01-00_0006 ,1032.373,0,102.25,103.44
Observed WS=U102-01-00      ,U102-01-00_0006 ,919.8665,0,101.8,102.89
Observed WS=U102-01-00      ,U102-01-00_0006 ,845.0081,0,101.71,102.79
Observed WS=U102-01-00      ,U102-01-00_0006 ,561.271 ,0,99.72,100.68
DSS Import StartDate=
DSS Import StartTime=
DSS Import EndDate=
DSS Import EndTime=
DSS Import GetInterval= 0 
DSS Import Interval=
DSS Import GetPeak= 0 
DSS Import FillOption= 0 
