Geom Title=U102-01-00 2019 (Re-Study)
Program Version=4.10
Viewing Rectangle= 3019595.14830347 , 3027816.2739675 , 13875219.832837 , 13863711.247055 

River Reach=U102-01-00      ,U102-01-00_0006 
Reach XY= 554 
3019675.7475746913874948.9963347 3020025.996546113874951.0032204
3020216.74747695 13874954.0015743020456.5025748613874959.9979531
3020802.9995852713874973.99825323021004.2524636113874984.0005298
3021161.4978840213874993.00379263021498.5004908613875007.0037646
3021945.7509086913875021.00373663022507.2468329413875036.0033785
3022848.2471351913875045.99778113023210.9970658613875055.0007159
3023475.5004738613875065.0029924 3023758.247283713875076.9960787
3023953.2495183613875080.00263433024189.2529833613875089.9970369
3024561.9973166113875095.00227633024798.2461879413875096.0016181
3025123.7471773613875107.00356463025301.2514155213875107.0035646
3025324.7461191913875097.00095993025339.2460901913875070.0003578
3025362.5029334413874671.00082773025374.7499561913874416.9996953
3025381.0005998613874109.99604423025389.2499271913873816.0015534
3025393.5015591113873500.00349783025393.7328578513873490.0740557
3025394.1029358713873478.64002343025394.3421086113873471.2689752
3025394.7039845313873460.07411573025395.0438788513873449.5810264
3025395.1898759513873445.07414573025395.3460436213873440.2651002
3025395.9851499513873420.52301373025396.1619868613873415.0738776
3025396.3499786113873409.26089713025396.6478782713873400.0739076
3025397.0711057813873387.00602043025397.6190049513873370.0739676
 3025397.753847213873365.91747993025399.2325187813873261.5269406
3025404.5455002813873219.60149953025414.5937085313872936.6352019
3025416.9034151913872820.79225783025422.2505173513872602.1959102
3025426.2544463613872528.89389143025428.8725513713872465.6020233
3025428.1025397813872386.29443913025428.5644811113872370.5867933
 3025435.956198613872353.9552649 3025434.460138613872323.4340005
3025434.4644036913872323.16005093025434.4958996913872321.1160918
3025434.5119757813872320.07409913025434.7321196913872305.8789175
 3025434.743930713872305.07412913025434.7560697813872304.2939469
3025434.9768698713872290.07415913025435.2039035313872275.4068656
3025435.20915286 13872275.073861 3025435.438811213872260.1710037
3025435.4417639413872259.98104343025435.5369081113872253.9429978
 3025435.6750312 13872245.0739213025435.9010806113872230.4391078
3025435.90698612 13872230.0739513025436.1300827713872215.6681399
3025436.13992527 13872215.0739813025436.1491116113872214.4621056
3025436.37188019 13872200.0740113025436.3850035213872199.2259156
3025436.60514744 13872185.0740413025436.8170892713872171.3549083
 3025436.858099713872168.75287943025437.07004152 13872155.074101
3025437.2750936213872141.81297273025437.30199644 13872140.074131
3025437.5050800313872127.04200493025437.53493561 13872125.074161
3025437.5661035313872123.04496563025437.9630843613872097.5000692
3025438.0001577713872095.07389293025438.1028478613872088.4669508
3025438.1930707813872087.10606113025440.6540238613872050.0739829
3025441.0178682813872044.59302283025442.2038895313872026.7410243
3025442.6471301213872020.07404293025443.1530346113872012.4579164
3025443.6438472713872005.07407293025444.6451576113871990.0160322
3025444.6809186913871989.46288373025445.1179256913871982.8959677
3025445.5700245213871976.0839734 3025445.604145213871975.0741329
3025445.7609690313871970.29789583025446.0988948613871960.0741629
3025446.4591303613871949.15292493025446.5929883613871945.0738648
3025446.7189723613871941.25595913025447.0880661213871930.0738949
 3025447.482094213871918.12903693025447.5831438613871915.0739249
 3025447.676975713871912.21402243025448.0769092713871900.0739549
3025448.50505802 13871887.1061333025448.5719870313871885.0739848
3025449.0168680313871871.59500923025449.0670647813871870.0740149
 3025449.113980713871868.65111743025449.5621425213871855.0740449
3025449.5929823713871854.13014913025450.0559079513871840.0740748
3025450.0719840213871839.60885273025450.53687811  13871825.49602
3025450.5509856913871825.08788443025450.5509856913871825.0741048
3025451.02900311 13871810.5669163025451.0460634413871810.0741349
3025451.0631237813871809.54788923025451.5401569513871795.0738368
3025451.9870064413871781.52399513025452.0349066113871780.0738668
3025452.0860876113871778.52498543025452.5299843613871765.0738968
3025452.9450097813871752.48205843025453.0250621113871750.0739268
3025453.1090514413871747.50208153025453.5191556113871735.0739568
3025453.6208614413871731.98997343025454.3820147813871708.9191534
3025454.5089830313871705.07401683025454.6441533613871700.9670696
3025455.0030765213871690.07404683025455.3400181113871679.8768887
3025455.4981542813871675.07407683025455.8190197813871665.3559204
3025455.9929039513871660.0741068 3025456.178927213871654.4320577
3025456.4879816913871645.07413683025456.6900810313871638.9209339
 3025456.982075213871630.07383873025457.2550405313871621.7930153
3025457.4771529413871615.0738687 3025457.734042213871607.2710628
3025457.9719026113871600.07389873025458.2248548613871592.3859219
3025458.6920455213871578.22912613025458.9610738613871570.0739587
3025459.2481467713871561.36301813025459.6500488713871549.1868614
3025459.9509012713871540.07401873025460.2720948613871530.3401143
3025460.4449947813871525.07404873025460.6080521913871520.1449247
3025461.1490616113871503.73583683025461.1979460313871502.2538843
3025461.3649404513871497.18401263025461.4079193613871495.8739759
3025461.4118563513871495.75291313025461.4830504513871493.6141379
 3025461.676947713871487.72307353025461.7189423613871486.4471574
3025461.98797069 13871478.2880533025462.0548996913871476.2798549
3025462.1700569413871475.05413563025462.8708429513871467.6000823
3025463.1080471913871465.07384063025464.4131626913871451.1988683
3025464.5181493613871450.0738706 3025465.119526113871443.6762456
3025465.5368481113871439.23891853025498.3251683613871297.4130867
3025530.0239238613871160.30115623025537.6892628713871111.2963329
3025542.0698315213871063.11303043025546.1761225313870992.4802976
3025551.6515052813870906.5168868 3025553.568168113870852.8578734
3025554.1154111213870799.74675923025555.4845028713870709.9503509
3025553.7066192813870684.7863592 3025555.330303713870655.2831374
3025555.3414585313870655.07414833025555.3611435313870654.7181779
3025555.5389646913870651.49508723025556.9192112813870626.4560953
3025557.0806282813870623.53090433025557.8217685213870610.0739102
3025558.48613727 13870598.026034 3025558.8302967 13870591.778015
3025559.4769489513870580.07397023025559.7082476913870575.9020625
3025560.8421036913870555.38012193025561.1350821113870550.0740302
3025561.4618531213870544.14884523025561.9628363613870535.0740602
3025562.7610631113870520.62691063025563.6190010313870505.0741202
3025563.9808769413870498.51803093025564.4470833513870490.0741502
3025565.55305228 13870470.0420383025566.1029199413870460.0738821
3025566.2626965213870457.17854673025566.7200446913870448.8911617
3025566.8584958613870446.3869016 3025567.696420713870430.7642294
3025571.0710858613870370.07406213025571.82797411   13870356.3651
3025571.8988401113870355.07409213025571.9788924513870353.6331501
3025572.7269224413870340.07412213025572.8548749413870337.7558853
3025573.5550047813870325.07415213025573.7308574513870321.8799328
3025574.38308711 13870310.0738543025574.6081522713870306.0039803
3025575.21084136 13870295.0738843025575.7508665313870285.2881424
 3025576.0389237 13870280.0739143025576.36011727 13870274.251091
3025576.86700603 13870265.0739443025577.2370840313870258.3751385
3025577.69508836 13870250.0739743025578.1048644513870242.6419023
3025578.52284262 13870235.0740043025578.9890490313870226.6219212
3025579.35092494 13870220.0740343025579.6740870313870214.2108568
3025580.7419982713870194.86903193025581.00708961 13870190.074094
3025581.2439657713870185.78112363025581.83484386 13870175.074124
3025582.4949475213870163.11712693025582.7170599413870159.0908883
3025582.9598416113870154.68013593025582.9821512713870154.2969346
3025583.0290671913870153.43998093025583.4910085213870145.0738559
3025583.5979636913870143.13488343025585.1238792813870115.4869729
 3025585.166858213870114.70383793025585.5369361913870108.0001112
3025585.9749274413870100.07394593025585.9998617813870099.6110204
3025587.5208561113870072.05792593025587.6301078613870070.0740059
3025587.7531391113870067.8581311 3025589.090078713870043.6268803
3025589.50510411 13870036.1058983025590.6599574413870015.1971472
3025590.9421091113870010.07412593025591.2580533613870004.3530088
3025592.2288519413869986.76610173025593.0110026213869972.6001195
3025593.4260280313869965.07388793025593.7980745313869958.3350562
3025594.7639518513869940.84788643025595.0818646113869935.0739478
3025595.6399343613869924.97094973025596.1520724413869915.6891441
3025597.3928836113869893.21904473025597.5661116113869890.0740378
3025597.7219511913869887.25908293025599.1448486113869861.4661554
3025599.2219481913869860.07409793025599.2908456913869858.8280374
3025600.0500305313869845.0741279 3025600.5369062 13869836.251967
3025600.8600682813869830.39699183025600.8781128713869830.0741578
3025600.8981259513869829.71293813025601.7058671113869815.0738598
3025601.7741084413869813.83698563025602.5339494513869800.0738898
3025603.2140661913869787.75107983025603.3620317713869785.0739198
3025603.9988415213869773.53588513025604.1901141113869770.0739498
3025604.3571085313869767.04606873025604.9164906113869754.1920918
3025605.2147183613869747.33711863025597.0972805313869707.4064242
3025591.62189777 13869651.2838333025591.0743266913869620.6214928
3025598.4660441913869559.57108993025608.3219956213869525.6236513
3025618.7127228513869436.93353993025611.3334725213869392.2978024
3025607.5004749413869321.11782673025609.69075927 13869290.729436
3025615.4397635313869255.13928413025622.2842380313869196.5527871
 3025620.093953713869149.19067713025618.1776189513869103.1973308
 3025619.8203322 13869079.9267083025628.0332422713868986.2976302
3025629.4020059413868968.50271833025646.9232963613868951.5289989
3025653.49382128 13868937.8403783025654.5889634513868891.0258391
 3025656.231676713868834.35567693025654.3153419513868788.3623305
3025647.4298570313868748.1819647 3025652.946250213868711.4330224
 3025655.957727113868689.25786993025664.1709652813868661.8809562
 3025671.015111713868618.89908683025677.0380655213868504.1896705
3025686.0724962813868352.52133873025685.4944134513868147.8330998
3025689.3274110313868007.11553343025694.8027937713867936.7567503
3025701.6469401913867888.57344773025702.4681327813867811.0965685
 3025708.765036213867740.73778543025710.1337998713867643.0020884
3025713.9664693613867628.76622453025713.4188982713867518.9846199
3025716.7043247813867477.64546383025718.0730884413867362.3884764
3025722.7272786113867318.58541443025725.7387555213867288.4706453
3025727.9287117713867276.97230873025727.92871177 13867235.906774
3025730.9401886913867205.79233293025734.7728581913867119.5549726
3025738.8794772813867051.66009533025735.04680778 13867009.773368
3025729.02385394 13866970.0765973025731.4877597813866864.9491826
3025740.2482409513866830.72812243025743.5336674513866820.8724991
3025746.2711947713866802.80363763025745.7236236913866783.6396339
3025736.6895210313866774.05796023025718.6206595313866753.2512433
3025718.0730884413866739.28900093025717.7991388613866695.7598884
3025725.7128369513866688.95183123025725.7846871913866688.8901515
3025748.1875295313866653.59921163025755.0320040313866631.6976806
3025769.2678679413866610.61734223025779.1234912713866589.8109533
3025855.24866711 13866489.7822823025858.9445258513866481.4666819
3025863.4103961913866468.99295353025868.6462781113866465.7590361
3025911.4568880213866405.08494493025921.4667105213866382.6017221
3025932.0923454513866359.81042913025933.1704272813866344.1027834
3025931.6471363613866335.75798383025931.65304185  13866335.07393
3025931.6730549513866332.80195293025931.92108594  13866305.07399
3025932.0421486913866291.5789383 3025932.0559282  13866290.07402
3025932.0779097813866287.51989133025932.1510723513866279.4451043
3025932.1789594413866276.24990073025932.19011427  13866275.07405
3025932.2048780313866273.40607433025932.4410980213866246.9779776
3025932.45815836  13866245.074113025932.4758748613866243.1351375
3025932.59300061  13866230.074143025932.82003428  13866204.64112
3025932.8610446913866200.07387193025932.8820420213866197.7290604
3025933.1071071913866172.64413683025933.1300730313866170.0739319
3025933.2399809513866157.77704053025933.2888653613866152.3219989
3025933.3981171113866140.0739919 3025933.424035713866137.1868586
3025933.5329593613866125.0740219 3025933.559862213866122.0510621
3025933.6671454513866110.07405193025933.7721321113866098.3089836
3025933.8010034413866095.07408193025933.9050058613866083.4428716
3025933.9358456913866080.07411193025933.9660293613866076.6449849
3025934.1720656913866053.70900723025934.2038897713866050.0738439
 3025934.237026213866046.37404813025934.3380758613866035.0738738
 3025934.372852713866031.23792353025934.4729181113866020.0739039
3025934.6671434513865998.33510223025934.7409621913865990.0739639
3025934.8180617813865981.51197313025935.0099905313865960.0740239
3025935.1008696113865949.88605213025935.1218669413865947.5960304
3025935.1418800213865945.28205873025935.1451608513865945.0530565
3025935.1730479413865942.68199833025935.19798228 13865940.499916
3025935.3210135313865930.07408383025935.4391235313865919.9760069
 3025935.5559212 13865910.0550953025935.6110391913865905.3717054
3025935.6399105313865902.90451883025939.9460042713865897.3625351
3025940.87021503 13865867.7953373025936.3518513613865842.1789184
3025912.2268996113865806.35123423025910.5330053613865789.2577644
3025901.9001486213865756.67416823025903.9112994413865713.3379688
 3025906.991017713865681.1529938 3025908.222970613865626.4844679
3025911.1488177813865553.49084753025910.8410756113865501.4404267
3025910.0274289413865475.41259163025910.3118771913865470.2990848
3025910.6028871113865465.0740296 3025910.863057213865460.4001544
3025911.4378591913865450.07405963025911.6540661213865446.1908653
3025912.2731593513865435.07408963025912.9641028613865422.6469491
3025913.1081314413865420.07411963025913.8489436113865406.7631226
3025913.9431035213865405.07414963025914.7331281913865390.8779838
3025914.7780756113865390.07385153025914.8181017813865389.3550209
3025915.5369323613865376.42886573025915.6120634413865375.0738815
3025916.3991353713865360.93709883025916.4470355213865360.0739115
3025917.1901442713865346.72715343025917.3850257713865343.2258481
3025918.1169796913865330.07397153025918.2688822713865327.3420216
3025918.9519517713865315.07400153025919.15405111 13865311.457867
3025919.7869238613865300.07403153025920.0379076213865295.5740405
3025921.1448607713865275.68201993025921.4568680213865270.0740915
3025921.8059486913865263.80507523025922.2918401113865255.0741215
3025922.6901332713865247.92092063025923.1271402813865240.0741515
3025923.5178875313865233.05513673025923.9621123713865225.0738534
3025924.4578462813865216.15293953025925.0989211113865204.6368864
3025925.6320565313865195.07391343025926.2268716113865184.3849584
 3025926.467028613865180.07394343025926.68093894  13865176.21798
3025927.3020006913865165.0739734 3025927.994912713865152.6159931
3025928.2629567813865147.80005793025928.9709606213865135.0740334
3025929.0539656913865133.5910968 3025929.805932713865120.0740634
3025930.5369023513865106.94613693025930.6359835313865105.1728465
3025930.6409047813865105.07409343025931.4269924513865090.9638854
3025931.4758768513865090.07412343025931.5319791113865089.0800309
3025932.3108489413865075.07415343025933.0080260313865062.5459633
3025933.1461491113865060.07385543025933.3000201913865057.3110656
 3025933.981121213865045.07388543025934.5900438613865034.1270569
3025934.8160932813865030.07391533025935.0680612813865025.5430845
 3025936.172061713865005.70913473025936.4860374513865000.0739754
3025936.9630706213864991.49984553025937.3210095313864985.0740054
3025937.7209431113864977.89094883025938.1559816213864970.0740353
3025938.6051276913864962.0071224 3025938.990953713864955.0740654
3025939.3360973613864948.87296233025939.8259257813864940.0740954
3025940.1271062813864934.66400123025940.6599136113864925.0741253
3025941.2570252713864914.35400243025941.70813987 13864906.246079
3025942.3298577813864895.07385733025943.0250663613864882.5860213
3025943.1651579413864880.07388733025943.9099071213864866.7018668
3025943.9459962713864866.04110693025943.9400907813864865.0739173
3025943.9289359513864863.46598093025943.8400253713864850.0739473
3025943.8219807713864847.3121418 3025943.792125213864842.7668753
3025943.76095727 13864838.1359793025943.7540675313864836.9748921
 3025943.7350387 13864834.1281133025943.73110169 13864833.632051
3025943.7225715213864832.33415343025943.7094481913864830.3292361
3025943.7009180313864829.02510493025943.6940282713864827.9201202
3025944.4230294413864822.10090613025944.6779501913864820.0740073
3025945.5368723613864813.22297113025948.4410660313864790.0740673
3025948.8570756913864786.75386393025950.3219677813864775.0740973
3025951.0089742813864769.60297963025951.9302322713864762.2594904
3025952.1392213613864760.59151473025953.1329857713864752.6699426
3025953.2189436113864751.98293613025953.2911219413864748.9458687
3025953.3521454513864746.34515213025953.3941401113864744.6049981
3025953.4361347713864742.83990983025953.7376433613864730.0738592
3025953.8951233613864723.43312443025954.0939418713864715.0738892
 3025954.242891713864708.77993853025954.4489280313864700.0739192
3025954.6651349413864690.94598473025954.8048984413864685.0739492
3025954.9420372713864679.26687423025955.0611315213864674.2540889
3025955.0030607713864672.62187433025953.1897441913864644.3023772
3025950.8797094413864623.35884953025947.75241911 13864621.561609
3025937.4820984513864615.65938993025932.7081578713864604.1095442
3025929.0122991113864593.63778043025925.1625692713864575.9284982
3025925.7783816913864514.33019623025920.2347576213864476.7554682
3025914.53693436 13864414.8494243025914.1937591913864383.3097889
3025899.45658395 13864278.6804053025886.6295098713864216.4006739
3025880.3486825213864143.02155563025875.4047947813864085.2651094
3025873.7059792713863990.02645483025874.9231684513863943.9359958
3025875.5793351113863920.33827393025880.0435650213863824.0763274
Rch Text X Y=3021303.2938535,13871134.2848844
Reverse River Text= 0 

Type RM Length L Ch R = 1 ,9263.177,960.68,961.65,960.7
BEGIN DESCRIPTION:
Limit of Detailed Study
END DESCRIPTION:
Node Name=J
XS GIS Cut Line=2
3025740.9168747813872958.14008023025019.7933170213872937.9514723
Node Last Edited Time=Jan/14/2012 17:47:25
#Sta/Elev= 152 
       0  121.41    4.98  121.38    9.95  121.33   14.93  121.21    19.9  121.11
   24.88  121.03   29.85  120.93   34.83  120.91    39.8  120.92   44.78  120.88
   49.75  120.85   54.73  120.82    59.7  120.81   64.68  120.77   69.65  120.63
   74.63  120.59    79.6  120.55   84.58  120.44   89.55  120.35   94.53  120.26
    99.5  120.16  104.48  119.99  109.45  119.79  114.43  119.55  119.41  119.25
  124.38  118.71  129.36   118.3  134.33  118.48  139.31  118.52  144.28  118.44
  149.26  118.47  154.23  119.05  159.21  119.31  164.18  119.56  169.16  119.87
  174.13  120.16  179.11  120.47  184.08  120.69  189.06  120.89  194.03  120.91
  199.01  121.02  203.98  121.14  208.96  121.18  213.93  121.29  218.91  121.41
  223.88  121.51  228.86  121.52  233.84  121.62  238.81  121.68  243.79  121.73
  248.76  121.85  253.74  121.79  258.71  122.14  263.69  121.79  265.93  121.39
  268.66   120.9  273.64  119.98  278.61  120.04  283.59  120.23  288.56  120.37
  293.54  120.18  297.82   119.4  298.51  119.27  303.49  117.47  308.46  115.75
  313.44   113.9  318.41  111.75  323.39  110.26  328.04  109.98  328.23  109.18
  329.68  108.75  331.43  109.27  332.04  109.99  334.77  112.75  348.27  115.28
  353.24  117.19  358.22  118.81  361.11  119.49  363.19  119.97  368.17  120.09
  373.14  119.85  378.12  119.13  383.09  119.18  388.07  119.86  393.04  120.26
  397.64  120.28  398.02  120.28  402.99   120.4  407.97  120.41  412.94  120.39
  417.92  120.17  422.89  120.09  427.87   120.1  432.84  119.98  437.82  119.78
  442.79  119.73  447.77  119.66  452.74  119.69  457.72  119.72   462.7  119.75
  467.67  119.84  472.65  119.77  477.62  119.75   482.6  119.82  487.57  119.81
  492.55  119.84  497.52  119.82   502.5  119.82  507.47  119.78  512.45  119.82
  517.42  119.87   522.4   119.9  527.37  119.92  532.35  119.93  537.32  119.89
   542.3  119.82  547.27  119.87  552.25   119.8  557.22  119.73   562.2  119.71
  567.17  119.84  572.15  119.77  577.12  119.68   582.1  119.63  587.08  119.65
  592.05  119.57  597.03   119.6     602  119.63  606.98  119.75  611.95  119.78
  616.93  119.84   621.9  119.99  626.88   120.2  631.85  120.36  636.83  120.49
   641.8  120.66  646.78  120.83  651.75  120.91  656.73  120.93   661.7  121.01
  666.68  121.17  671.65  121.34  676.63  121.47   681.6  121.62  686.58  121.66
  691.55  121.62  696.53  121.68  701.51  121.77  706.48  121.82  711.46   121.9
  716.43  122.01  721.41  122.07
#Mann= 5 ,-1 , 0 
       0     .15       0  265.93     .07       0  288.56     .04       0
  368.17     .07       0  397.64     .15       0
Bank Sta=288.56,368.17
XS Rating Curve= 0 ,0
Exp/Cntr=0.3,0.1

Type RM Length L Ch R = 1 ,8301.525,487.38,487.5,487.78
BEGIN DESCRIPTION:
Approx. 400 ft D/S of Confluence with U102-01-02
END DESCRIPTION:
XS GIS Cut Line=2
3025806.0620856913871999.73910993025069.9260907813871978.8060808
Node Last Edited Time=May/08/2012 13:18:25
#Sta/Elev= 151 
       0  119.37    4.98   119.4    9.95   119.3   14.93  119.39    19.9  119.42
   24.88  119.38   29.86  119.47   34.83  119.36   39.81   119.5   44.78  119.38
   49.76  119.47   54.73  119.43   59.71  119.36   64.69  119.37   69.66  119.32
   74.64  119.43   79.61  119.26   84.59  119.44   89.57   119.3   94.54  119.28
   99.52  119.32  104.49  119.65  109.47  119.86  114.45  119.57  119.42  119.37
   124.4  119.09  129.37  118.88  134.35  118.66  139.33  118.37   144.3  117.85
  149.28  117.76  154.25  117.77  159.23  117.81   164.2  117.71  169.18   117.9
  174.16   118.3  179.13   118.6  184.11  118.84  189.08  119.37  194.06  119.78
  199.04  120.04  204.01  120.28  208.99  120.36  213.96  120.46  218.94  120.53
  223.92  120.43  228.89  120.43  233.87  120.52  238.84  120.62  243.82  120.69
   248.8  120.76  253.77  120.84  258.75  120.81  263.72  120.89   268.7  120.64
  273.67  120.75  278.65  120.71  283.63  120.77   288.6  120.43  293.58  120.13
  298.55  119.82  303.03  119.97  303.53  119.98  308.51  120.51  313.48  120.96
  318.46  120.78  323.43  120.04  328.41  118.59  329.56  118.16  339.19  114.69
  340.68   114.2  354.56  109.67   357.9  108.58  358.74  107.13  361.23  107.21
  365.56  107.09  365.96  108.55  372.55  111.07  385.86  116.17  392.43  118.91
   393.1  119.12  398.07  119.97  403.05  119.88  408.02  119.48     413  118.74
  417.98  118.47  422.95   118.4  427.93  118.32  431.93  118.59   432.9  118.66
  437.88   118.6  442.85  118.53  447.83  118.34  452.81  118.31  457.78  118.23
  462.76  118.37  467.73  118.44  472.71  118.49  477.69  118.67  482.66  118.71
  487.64   118.9  492.61  119.36  497.59  119.89  502.57  120.12  507.54  120.24
  512.52  120.31  517.49  120.36  522.47   120.4  527.45  120.44  532.42  120.48
   537.4  120.52  542.37  120.56  547.35   120.6  552.32  120.64   557.3  120.68
  562.28   120.7  567.25  120.64  572.23  120.66   577.2  120.66  582.18  120.49
  587.16  120.52  592.13  120.64  597.11   120.8  602.08     121  607.06  121.24
  612.04  121.34  617.01   121.3  621.99  121.23  626.96  121.17  631.94  121.19
  636.92  121.24  641.89   121.3  646.87  121.39  651.84  121.47  656.82  121.49
  661.79  121.35  666.77  121.23  671.75  121.17  676.72  121.11   681.7  121.07
  686.67  121.07  691.65  121.15  696.63  121.22   701.6  121.23  706.58  121.27
  711.55  121.33  716.53   121.4  721.51  121.49  726.48  121.52  731.46  121.45
  736.43  121.35
#Mann= 5 ,-1 , 0 
       0     .15       0  283.63     .07       0  313.48     .04       0
  398.07     .07       0  431.93      .1       0
#Block Obstruct= 2 , 0 
       0  109.47   119.5               0        
Bank Sta=313.48,398.07
XS Rating Curve= 0 ,0
Exp/Cntr=0.3,0.1

Type RM Length L Ch R = 1 ,7814.029,6.8,6.38,6.81
XS GIS Cut Line=3
3025717.4077354413871533.01596193025604.9289577813871507.1121424
3025079.4198381913871489.3490545
Node Last Edited Time=Apr/20/2012 17:22:41
#Sta/Elev= 132 
       0  121.34    4.81  121.26    9.62  120.86   14.43  120.64   19.24  120.39
   24.05  120.13   25.45  120.09   28.86  119.98   33.67  119.78   38.47  119.53
   43.28  119.24   48.09  118.88    52.9  118.71   57.71  118.81   62.52   118.8
   67.33  118.71   72.14  118.74   76.95  119.25   81.76  119.67   86.57  119.87
   91.38  120.22   96.19  120.39     101  120.55   105.8  120.71  110.61  120.88
  115.42  120.96  120.38  121.07  125.34   121.2   130.3  121.29  135.27  121.35
  140.23  121.38  145.19  121.45  150.15  121.53  155.11  121.55  160.07   121.6
  165.03  121.64  169.99  121.68  174.95  121.71  179.91  121.61  184.87  121.36
  185.67  121.31  189.83  121.07  194.79  120.76  199.75  120.41  204.71  120.17
  209.67  120.19  214.63  120.11  219.59  119.74  224.55   118.7  226.59  118.14
  228.34  116.36  242.81  111.75  254.51  108.02  256.33  107.44  259.39  107.32
  264.61  107.58  264.78  108.02  279.96  112.51  289.67  115.39  293.83  118.37
     294  118.42  298.96  119.36  303.92  119.89  308.88   120.1  313.84  120.32
   318.8  120.65  323.76  121.05  327.99  120.92  328.72   120.9  333.68  120.77
  338.64   120.7   343.6  120.64  348.56  120.57  353.53  120.51  358.49  120.46
  363.45  120.47  368.41  120.47  373.37  120.44  378.33  120.74  383.29  120.93
  388.25  121.05  393.21  121.04  398.17  120.83  403.13  120.51  408.09  120.49
  413.05  120.44  418.01  120.43  422.97  120.42  427.93  120.41  432.89   120.4
  437.85  120.39  442.81  120.43  447.77  120.29  452.73  120.07   457.7  119.18
  462.66  119.08  467.62  119.09  472.58     119  477.54  118.95   482.5  118.97
  487.46  119.04  492.42  119.12  497.38  119.04  502.34  119.15   507.3   119.8
  512.26   120.1  517.22  120.26  522.18   120.4  527.14  120.54   532.1  120.67
  537.06   120.8  542.02  120.93  546.98  120.98  551.94  120.92   556.9  120.81
  561.87  120.71  566.83  120.61  571.79  120.55  576.75   120.6  581.71  120.69
  586.67  120.77  591.63  120.85  596.59  120.94  601.55     121  606.51  120.97
  611.47  120.91  616.43  120.86  621.39  120.81  626.35  120.76  631.31  120.81
  636.27  120.91  641.23  120.94
#Mann= 6 ,-1 , 0 
       0     .07       0   25.45     .15       0  185.67     .07       0
  214.63     .04       0  303.92     .07       0  327.99      .1       0
Bank Sta=214.63,303.92
XS Rating Curve= 0 ,0
Exp/Cntr=0.3,0.1

Type RM Length L Ch R = 1 ,7807.646,23.95,20.84,24.14
XS GIS Cut Line=4
3025713.3483603613871513.73384833025610.8508619413871500.4500822
3025542.00487103 13871498.9691143025079.3289591113871481.2030734
Node Last Edited Time=Apr/20/2012 17:22:27
#Sta/Elev= 137 
       0  122.26    4.92  121.72    9.84  120.87   14.76  120.55   19.69  120.32
   24.61     120   29.53  119.76   34.45  119.58   39.37  119.14   44.29  118.76
   49.22   118.7   54.14  118.81   59.06  118.72   63.98  118.54   68.22  118.74
    68.9  118.77   73.82  119.34   78.75  119.73   83.67  119.82   88.59  119.78
   93.51  119.92   98.43  120.17  103.35  120.34  108.27  120.53  113.19  120.68
  118.11   120.8  123.03  120.89  127.95  120.97  132.87  121.02  137.79  121.11
   142.7   121.2  147.62  121.26  152.54  121.33  157.46  121.42  162.38  121.49
   167.3  121.56  172.22  121.61   177.2  121.43  178.56  121.37  182.17  121.19
  187.15  120.97  192.13  120.74  197.11  120.46  202.09  120.41  207.07  120.35
  212.05  119.68  217.02  118.72  217.63  118.59  218.67  118.18  219.32  118.03
  224.15  116.88   225.2  116.63  233.95  113.53   245.6  109.41  249.48  108.04
  249.58  107.98  252.62  107.93  255.79   107.9  257.24  108.05  262.72  110.09
  272.86  113.88  277.92  115.76   279.4  116.32  280.45  116.56  283.67   117.3
  288.51  118.23   291.7  118.85  296.68  119.57  301.66  119.88  306.64  120.18
  311.62   120.7   316.6  121.02  321.58  120.92   321.6  120.92  326.56  120.87
  331.53  120.81  336.51  120.75  341.49  120.69  346.47  120.63  351.45  120.57
  356.43  120.56  361.41  120.57  366.39  120.42  371.36  120.74  376.34  120.89
  381.32  121.01   386.3  121.06  391.28  120.88  396.26  120.62  401.24  120.62
  406.21  120.59  411.19  120.57  416.17  120.56  421.15  120.56  426.13  120.55
  431.11  120.54  436.09  120.63  441.07  120.53  446.04  119.82  451.02  119.12
     456  118.89  460.98  118.85  465.96  118.79  470.94  118.74  475.92  118.76
  480.89  118.83  485.87  118.79  490.85  118.78  495.83  118.91  500.81  119.78
  505.79  120.22  510.77  120.38  515.75  120.51  520.72  120.64   525.7  120.77
  530.68   120.9  535.66  121.03  540.64  121.05  545.62     121   550.6  120.91
  555.57   120.8  560.55   120.7  565.53  120.75  570.51  120.72  575.49  120.75
  580.47  120.83  585.45  120.92  590.43     121   595.4  121.04  600.38  120.99
  605.36  120.92  610.34  120.87  615.32  120.82   620.3  120.79  625.28  120.86
  630.25  120.93  635.23  120.96
#Mann= 6 ,-1 , 0 
       0     .07       0   68.22     .15       0  172.22     .07       0
  207.07     .04       0  306.64     .07       0   321.6      .1       0
Bank Sta=207.07,306.64
XS Rating Curve= 0 ,0
Exp/Cntr=0.3,0.1
