Flow Title=Conveyance Flows
Program Version=4.10
Number of Profiles= 1 
Profile Names=100YR
River Rch & RM=U102-01-00,U102-01-00_0006 ,9263.177
    3100
Boundary for River Rch & Prof#=U102-01-00,U102-01-00_0006 , 1 
Up Type= 0 
Dn Type= 3 
Dn Slope=0.0018
DSS Import StartDate=
DSS Import StartTime=
DSS Import EndDate=
DSS Import EndTime=
DSS Import GetInterval= 0 
DSS Import Interval=
DSS Import GetPeak= 0 
DSS Import FillOption= 0 
