Flow Title=Effective Multi-Profile 2019 (Re-Study)
Program Version=4.10
Number of Profiles= 4 
Profile Names=10YR,50YR,100YR,500YR
River Rch & RM=U102-01-00,U102-01-00_0006 ,9263.177
     580     871    1007    1426
River Rch & RM=U102-01-00,U102-01-00_0006 ,8301.525
     615     923    1068    1511
River Rch & RM=U102-01-00,U102-01-00_0006 ,7814.029
     619     929    1075    1522
River Rch & RM=U102-01-00,U102-01-00_0006 ,7757.207
     650     976    1129    1598
River Rch & RM=U102-01-00,U102-01-00_0006 ,7345.693
     723    1085    1256    1778
River Rch & RM=U102-01-00,U102-01-00_0006 ,6456.532
     825    1239    1433    2029
River Rch & RM=U102-01-00,U102-01-00_0006 ,5352.208
     917    1377    1594    2256
River Rch & RM=U102-01-00,U102-01-00_0006 ,4464.653
    1043    1566    1812    2565
River Rch & RM=U102-01-00,U102-01-00_0006 ,3391.267
    1098    1648    1907    2699
River Rch & RM=U102-01-00,U102-01-00_0006 ,2965.148
    1123    1685    1951    2760
River Rch & RM=U102-01-00,U102-01-00_0006 ,2775.49 
    1163    1746    2021    2859
River Rch & RM=U102-01-00,U102-01-00_0006 ,2481.255
    1210    1817    2103    2976
River Rch & RM=U102-01-00,U102-01-00_0006 ,2146.282
    1226    1840    2130    3014
River Rch & RM=U102-01-00,U102-01-00_0006 ,2041.704
    1375    2064    2389    3380
River Rch & RM=U102-01-00,U102-01-00_0006 ,1081.651
    1414    2123    2457    3477
River Rch & RM=U102-01-00,U102-01-00_0006 ,845.0081
    1463    2196    2542    3597
Boundary for River Rch & Prof#=U102-01-00,U102-01-00_0006 , 1 
Up Type= 0 
Dn Type= 3 
Dn Slope=0.0018
Boundary for River Rch & Prof#=U102-01-00,U102-01-00_0006 , 2 
Up Type= 0 
Dn Type= 3 
Dn Slope=0.0018
Boundary for River Rch & Prof#=U102-01-00,U102-01-00_0006 , 3 
Up Type= 0 
Dn Type= 3 
Dn Slope=0.0018
Boundary for River Rch & Prof#=U102-01-00,U102-01-00_0006 , 4 
Up Type= 0 
Dn Type= 3 
Dn Slope=0.0018
Observed WS=U102-01-00      ,U102-01-00_0006 ,9263.177,0,115.23,116.27,116.71,117.83
Observed WS=U102-01-00      ,U102-01-00_0006 ,8301.525,0,113.22,114.28,114.76,116.07
Observed WS=U102-01-00      ,U102-01-00_0006 ,7814.029,0,111.92,112.99,113.53,115.04
Observed WS=U102-01-00      ,U102-01-00_0006 ,7807.646,0,111.17,112.52,113.11,114.73
Observed WS=U102-01-00      ,U102-01-00_0006 ,7786.81 ,0,111.63,112.82,113.38,114.94
Observed WS=U102-01-00      ,U102-01-00_0006 ,7757.207,0,111.7,112.88,113.43,114.94
Observed WS=U102-01-00      ,U102-01-00_0006 ,7451.575,0,107.49,108.74,109.28,110.64
Observed WS=U102-01-00      ,U102-01-00_0006 ,7366.426,0,107.45,108.71,109.25,110.63
Observed WS=U102-01-00      ,U102-01-00_0006 ,7345.693,0,107.43,108.69,109.24,110.62
Observed WS=U102-01-00      ,U102-01-00_0006 ,6456.532,0,106.62,107.97,108.53,109.93
Observed WS=U102-01-00      ,U102-01-00_0006 ,5352.208,0,105.74,107.14,107.68,109.04
Observed WS=U102-01-00      ,U102-01-00_0006 ,4464.653,0,105.2,106.54,107.04,108.32
Observed WS=U102-01-00      ,U102-01-00_0006 ,3391.267,0,104.49,105.67,106.09,107.37
Observed WS=U102-01-00      ,U102-01-00_0006 ,2965.148,0,104.22,105.37,105.77,107.09
Observed WS=U102-01-00      ,U102-01-00_0006 ,2775.49 ,0,104,105.19,105.59,106.96
Observed WS=U102-01-00      ,U102-01-00_0006 ,2481.255,0,103.78,104.97,105.36,106.77
Observed WS=U102-01-00      ,U102-01-00_0006 ,2146.282,0,103.63,104.81,105.19,106.6
Observed WS=U102-01-00      ,U102-01-00_0006 ,2041.704,0,103.58,104.76,105.13,106.57
Observed WS=U102-01-00      ,U102-01-00_0006 ,1081.651,0,102.51,103.71,103.98,105.71
Observed WS=U102-01-00      ,U102-01-00_0006 ,1032.373,0,102.25,103.44,103.63,105.54
Observed WS=U102-01-00      ,U102-01-00_0006 ,919.8665,0,101.8,102.89,103.29,104.09
Observed WS=U102-01-00      ,U102-01-00_0006 ,845.0081,0,101.71,102.79,103.18,104.06
Observed WS=U102-01-00      ,U102-01-00_0006 ,561.271 ,0,99.72,100.68,101.02,101.81
DSS Import StartDate=
DSS Import StartTime=
DSS Import EndDate=
DSS Import EndTime=
DSS Import GetInterval= 0 
DSS Import Interval=
DSS Import GetPeak= 0 
DSS Import FillOption= 0 
