Flow Title=Effective Multi-Profile 2019
Program Version=4.10
Number of Profiles= 4 
Profile Names=10YR,50YR,100YR,500YR
River Rch & RM=U120-00-00,U120-00-00_0003 ,19078.15
     451     708     845    1245
River Rch & RM=U120-00-00,U120-00-00_0003 ,18208.46
     470     738     880    1298
River Rch & RM=U120-00-00,U120-00-00_0003 ,17455.63
     482     756     902    1329
River Rch & RM=U120-00-00,U120-00-00_0003 ,17027.36
     507     796     949    1399
River Rch & RM=U120-00-00,U120-00-00_0003 ,16098.47
     512     804     959    1415
River Rch & RM=U120-00-00,U120-00-00_0003 ,15904.44
     538     844    1007    1485
River Rch & RM=U120-00-00,U120-00-00_0003 ,15024.47
     551     866    1032    1522
River Rch & RM=U120-00-00,U120-00-00_0003 ,14577.79
     572     898    1071    1579
River Rch & RM=U120-00-00,U120-00-00_0003 ,13914.49
     602     945    1127    1662
River Rch & RM=U120-00-00,U120-00-00_0003 ,12983.14
     613     963    1148    1693
River Rch & RM=U120-00-00,U120-00-00_0003 ,12652.78
     643    1010    1205    1777
River Rch & RM=U120-00-00,U120-00-00_0003 ,11780.53
     674    1058    1262    1861
River Rch & RM=U120-00-00,U120-00-00_0003 ,10937.51
     692    1086    1295    1910
River Rch & RM=U120-00-00,U120-00-00_0003 ,10473.05
     712    1117    1332    1965
River Rch & RM=U120-00-00,U120-00-00_0003 ,9957.791
     754    1184    1412    2083
River Rch & RM=U120-00-00,U120-00-00_0003 ,8902.806
     789    1239    1477    2179
River Rch & RM=U120-00-00,U120-00-00_0003 ,8091.412
     821    1290    1538    2268
River Rch & RM=U120-00-00,U120-00-00_0003 ,7360.69 
     846    1329    1584    2337
River Rch & RM=U120-00-00,U120-00-00_0003 ,6817.104
     890    1397    1665    2457
River Rch & RM=U120-00-00,U120-00-00_0003 ,5915.036
     940    1476    1760    2596
River Rch & RM=U120-00-00,U120-00-00_0003 ,4916.15 
     990    1555    1853    2735
River Rch & RM=U120-00-00,U120-00-00_0003 ,3978.517
    1023    1607    1915    2825
River Rch & RM=U120-00-00,U120-00-00_0003 ,3387.121
    1068    1678    2000    2951
River Rch & RM=U120-00-00,U120-00-00_0003 ,2597.571
    1109    1742    2076    3063
River Rch & RM=U120-00-00,U120-00-00_0003 ,1924.927
    1159    1820    2170    3202
River Rch & RM=U120-00-00,U120-00-00_0003 ,1125.422
    1213    1905    2270    3350
Boundary for River Rch & Prof#=U120-00-00,U120-00-00_0003 , 1 
Up Type= 0 
Dn Type= 3 
Dn Slope=0.0048
Boundary for River Rch & Prof#=U120-00-00,U120-00-00_0003 , 2 
Up Type= 0 
Dn Type= 3 
Dn Slope=0.0048
Boundary for River Rch & Prof#=U120-00-00,U120-00-00_0003 , 3 
Up Type= 0 
Dn Type= 3 
Dn Slope=0.0048
Boundary for River Rch & Prof#=U120-00-00,U120-00-00_0003 , 4 
Up Type= 0 
Dn Type= 3 
Dn Slope=0.0048
Observed WS=U120-00-00      ,U120-00-00_0003 ,19078.15,0,133.95,135.38,136.05,138.03
Observed WS=U120-00-00      ,U120-00-00_0003 ,18208.46,0,133.48,134.92,135.61,137.7
Observed WS=U120-00-00      ,U120-00-00_0003 ,18025.04,0,133.4,134.84,135.54,137.64
Observed WS=U120-00-00      ,U120-00-00_0003 ,17455.63,0,133.1,134.55,135.26,137.44
Observed WS=U120-00-00      ,U120-00-00_0003 ,17436.38,0,133.09,134.54,135.25,137.44
Observed WS=U120-00-00      ,U120-00-00_0003 ,17413.48,0,133.09,134.54,135.25,137.43
Observed WS=U120-00-00      ,U120-00-00_0003 ,17027.36,0,132.96,134.4,135.13,137.34
Observed WS=U120-00-00      ,U120-00-00_0003 ,16098.47,0,132.88,134.31,135.04,137.27
Observed WS=U120-00-00      ,U120-00-00_0003 ,16076.21,0,132.81,134.17,134.85,136.99
Observed WS=U120-00-00      ,U120-00-00_0003 ,15958.48,0,132.61,133.75,134.31,135.69
Observed WS=U120-00-00      ,U120-00-00_0003 ,15904.44,0,132.6,133.74,134.3,135.7
Observed WS=U120-00-00      ,U120-00-00_0003 ,15024.47,0,132.43,133.49,134.02,135.33
Observed WS=U120-00-00      ,U120-00-00_0003 ,14577.79,0,132.38,133.39,133.92,135.21
Observed WS=U120-00-00      ,U120-00-00_0003 ,13914.49,0,132.31,133.28,133.79,135.03
Observed WS=U120-00-00      ,U120-00-00_0003 ,12983.14,0,132.17,133.02,133.48,134.55
Observed WS=U120-00-00      ,U120-00-00_0003 ,12936.39,0,132.17,133.01,133.45,134.52
Observed WS=U120-00-00      ,U120-00-00_0003 ,12881.45,0,132.06,132.88,133.32,134.35
Observed WS=U120-00-00      ,U120-00-00_0003 ,12864.04,0,132.06,132.89,133.34,134.39
Observed WS=U120-00-00      ,U120-00-00_0003 ,12848   ,0,131.88,132.86,133.28,134.31
Observed WS=U120-00-00      ,U120-00-00_0003 ,12652.78,0,131.86,132.85,133.27,134.28
Observed WS=U120-00-00      ,U120-00-00_0003 ,11780.53,0,131.84,132.78,133.19,134.15
Observed WS=U120-00-00      ,U120-00-00_0003 ,11619.05,0,131.83,132.76,133.16,134.11
Observed WS=U120-00-00      ,U120-00-00_0003 ,11542.75,0,127.21,128.91,129.67,131.66
Observed WS=U120-00-00      ,U120-00-00_0003 ,11213.5 ,0,127.08,128.78,129.54,131.55
Observed WS=U120-00-00      ,U120-00-00_0003 ,10937.51,0,126.89,128.58,129.33,131.34
Observed WS=U120-00-00      ,U120-00-00_0003 ,10913.84,0,126.86,128.54,129.3,131.21
Observed WS=U120-00-00      ,U120-00-00_0003 ,10473.05,0,126.61,128.28,129.04,130.94
Observed WS=U120-00-00      ,U120-00-00_0003 ,9957.791,0,126.36,128.01,128.76,130.66
Observed WS=U120-00-00      ,U120-00-00_0003 ,8902.806,0,125.84,127.49,128.24,130.12
Observed WS=U120-00-00      ,U120-00-00_0003 ,8091.412,0,125.31,126.99,127.75,129.65
Observed WS=U120-00-00      ,U120-00-00_0003 ,7994.904,0,125.24,126.93,127.69,129.59
Observed WS=U120-00-00      ,U120-00-00_0003 ,7883.304,0,125.17,126.86,127.62,129.53
Observed WS=U120-00-00      ,U120-00-00_0003 ,7745.163,0,125.09,126.78,127.55,129.45
Observed WS=U120-00-00      ,U120-00-00_0003 ,7660.303,0,125.04,126.74,127.5,129.41
Observed WS=U120-00-00      ,U120-00-00_0003 ,7542.502,0,124.97,126.67,127.44,129.34
Observed WS=U120-00-00      ,U120-00-00_0003 ,7360.69 ,0,124.86,126.57,127.34,129.24
Observed WS=U120-00-00      ,U120-00-00_0003 ,6817.104,0,124.54,126.22,126.97,128.84
Observed WS=U120-00-00      ,U120-00-00_0003 ,5915.036,0,123.86,125.51,126.25,128.07
Observed WS=U120-00-00      ,U120-00-00_0003 ,4916.15 ,0,123.08,124.72,125.44,127.22
Observed WS=U120-00-00      ,U120-00-00_0003 ,3978.517,0,122.38,123.97,124.66,126.38
Observed WS=U120-00-00      ,U120-00-00_0003 ,3608.501,0,121.76,123.26,123.92,125.56
Observed WS=U120-00-00      ,U120-00-00_0003 ,3387.121,0,121.07,122.53,123.19,124.79
Observed WS=U120-00-00      ,U120-00-00_0003 ,2871.229,0,118.91,120.38,121.04,122.59
Observed WS=U120-00-00      ,U120-00-00_0003 ,2597.571,0,117.85,119.44,120.13,121.79
Observed WS=U120-00-00      ,U120-00-00_0003 ,2407.601,0,116.88,118.53,119.25,121.01
Observed WS=U120-00-00      ,U120-00-00_0003 ,2096.011,0,115.41,117.2,117.98,119.88
Observed WS=U120-00-00      ,U120-00-00_0003 ,2013.345,0,114.54,116.37,117.16,119.09
Observed WS=U120-00-00      ,U120-00-00_0003 ,1924.927,0,114.43,116.27,117.07,119.01
Observed WS=U120-00-00      ,U120-00-00_0003 ,1622.732,0,114.05,115.94,116.75,118.72
Observed WS=U120-00-00      ,U120-00-00_0003 ,1125.422,0,113.68,115.56,116.36,118.31
Observed WS=U120-00-00      ,U120-00-00_0003 ,997.7322,0,113.59,115.46,116.26,118.21
Observed WS=U120-00-00      ,U120-00-00_0003 ,948.8668,0,113.49,115.33,116.12,118.04
Observed WS=U120-00-00      ,U120-00-00_0003 ,873.4696,0,113.34,115.14,115.9,117.77
Observed WS=U120-00-00      ,U120-00-00_0003 ,783.011 ,0,113.05,114.79,115.53,117.34
Observed WS=U120-00-00      ,U120-00-00_0003 ,736.1243,0,112.9,114.62,115.36,117.15
Observed WS=U120-00-00      ,U120-00-00_0003 ,628.7742,0,112.56,114.25,114.96,116.72
Observed WS=U120-00-00      ,U120-00-00_0003 ,534.5508,0,112.27,113.91,114.62,116.34
Observed WS=U120-00-00      ,U120-00-00_0003 ,307.2545,0,111.55,113.11,113.78,115.42
DSS Import StartDate=
DSS Import StartTime=
DSS Import EndDate=
DSS Import EndTime=
DSS Import GetInterval= 0 
DSS Import Interval=
DSS Import GetPeak= 0 
DSS Import FillOption= 0 
