Flow Title=Effective Floodway 2019
Program Version=4.10
Number of Profiles= 2 
Profile Names=100YR,FW
River Rch & RM=U120-00-00,U120-00-00_0003 ,19078.15
     845     845
River Rch & RM=U120-00-00,U120-00-00_0003 ,18208.46
     880     880
River Rch & RM=U120-00-00,U120-00-00_0003 ,17455.63
     902     902
River Rch & RM=U120-00-00,U120-00-00_0003 ,17027.36
     949     949
River Rch & RM=U120-00-00,U120-00-00_0003 ,16098.47
     959     959
River Rch & RM=U120-00-00,U120-00-00_0003 ,15904.44
    1007    1007
River Rch & RM=U120-00-00,U120-00-00_0003 ,15024.47
    1032    1032
River Rch & RM=U120-00-00,U120-00-00_0003 ,14577.79
    1071    1071
River Rch & RM=U120-00-00,U120-00-00_0003 ,13914.49
    1127    1127
River Rch & RM=U120-00-00,U120-00-00_0003 ,12983.14
    1148    1148
River Rch & RM=U120-00-00,U120-00-00_0003 ,12652.78
    1205    1205
River Rch & RM=U120-00-00,U120-00-00_0003 ,11780.53
    1262    1262
River Rch & RM=U120-00-00,U120-00-00_0003 ,10937.51
    1295    1295
River Rch & RM=U120-00-00,U120-00-00_0003 ,10473.05
    1332    1332
River Rch & RM=U120-00-00,U120-00-00_0003 ,9957.791
    1412    1412
River Rch & RM=U120-00-00,U120-00-00_0003 ,8902.806
    1477    1477
River Rch & RM=U120-00-00,U120-00-00_0003 ,8091.412
    1538    1538
River Rch & RM=U120-00-00,U120-00-00_0003 ,7360.69 
    1584    1584
River Rch & RM=U120-00-00,U120-00-00_0003 ,6817.104
    1665    1665
River Rch & RM=U120-00-00,U120-00-00_0003 ,5915.036
    1760    1760
River Rch & RM=U120-00-00,U120-00-00_0003 ,4916.15 
    1853    1853
River Rch & RM=U120-00-00,U120-00-00_0003 ,3978.517
    1915    1915
River Rch & RM=U120-00-00,U120-00-00_0003 ,3387.121
    2000    2000
River Rch & RM=U120-00-00,U120-00-00_0003 ,2597.571
    2076    2076
River Rch & RM=U120-00-00,U120-00-00_0003 ,1924.927
    2170    2170
River Rch & RM=U120-00-00,U120-00-00_0003 ,1125.422
    2270    2270
Boundary for River Rch & Prof#=U120-00-00,U120-00-00_0003 , 1 
Up Type= 0 
Dn Type= 3 
Dn Slope=0.0048
Boundary for River Rch & Prof#=U120-00-00,U120-00-00_0003 , 2 
Up Type= 0 
Dn Type= 3 
Dn Slope=0.0048
Observed WS=U120-00-00      ,U120-00-00_0003 ,19078.15,0,133.95,135.38
Observed WS=U120-00-00      ,U120-00-00_0003 ,18208.46,0,133.48,134.92
Observed WS=U120-00-00      ,U120-00-00_0003 ,18025.04,0,133.4,134.84
Observed WS=U120-00-00      ,U120-00-00_0003 ,17455.63,0,133.1,134.55
Observed WS=U120-00-00      ,U120-00-00_0003 ,17436.38,0,133.09,134.54
Observed WS=U120-00-00      ,U120-00-00_0003 ,17413.48,0,133.09,134.54
Observed WS=U120-00-00      ,U120-00-00_0003 ,17027.36,0,132.96,134.4
Observed WS=U120-00-00      ,U120-00-00_0003 ,16098.47,0,132.88,134.31
Observed WS=U120-00-00      ,U120-00-00_0003 ,16076.21,0,132.81,134.17
Observed WS=U120-00-00      ,U120-00-00_0003 ,15958.48,0,132.61,133.75
Observed WS=U120-00-00      ,U120-00-00_0003 ,15904.44,0,132.6,133.74
Observed WS=U120-00-00      ,U120-00-00_0003 ,15024.47,0,132.43,133.49
Observed WS=U120-00-00      ,U120-00-00_0003 ,14577.79,0,132.38,133.39
Observed WS=U120-00-00      ,U120-00-00_0003 ,13914.49,0,132.31,133.28
Observed WS=U120-00-00      ,U120-00-00_0003 ,12983.14,0,132.17,133.02
Observed WS=U120-00-00      ,U120-00-00_0003 ,12936.39,0,132.17,133.01
Observed WS=U120-00-00      ,U120-00-00_0003 ,12881.45,0,132.06,132.88
Observed WS=U120-00-00      ,U120-00-00_0003 ,12864.04,0,132.06,132.89
Observed WS=U120-00-00      ,U120-00-00_0003 ,12848   ,0,131.88,132.86
Observed WS=U120-00-00      ,U120-00-00_0003 ,12652.78,0,131.86,132.85
Observed WS=U120-00-00      ,U120-00-00_0003 ,11780.53,0,131.84,132.78
Observed WS=U120-00-00      ,U120-00-00_0003 ,11619.05,0,131.83,132.76
Observed WS=U120-00-00      ,U120-00-00_0003 ,11542.75,0,127.21,128.91
Observed WS=U120-00-00      ,U120-00-00_0003 ,11213.5 ,0,127.08,128.78
Observed WS=U120-00-00      ,U120-00-00_0003 ,10937.51,0,126.89,128.58
Observed WS=U120-00-00      ,U120-00-00_0003 ,10913.84,0,126.86,128.54
Observed WS=U120-00-00      ,U120-00-00_0003 ,10473.05,0,126.61,128.28
Observed WS=U120-00-00      ,U120-00-00_0003 ,9957.791,0,126.36,128.01
Observed WS=U120-00-00      ,U120-00-00_0003 ,8902.806,0,125.84,127.49
Observed WS=U120-00-00      ,U120-00-00_0003 ,8091.412,0,125.31,126.99
Observed WS=U120-00-00      ,U120-00-00_0003 ,7994.904,0,125.24,126.93
Observed WS=U120-00-00      ,U120-00-00_0003 ,7883.304,0,125.17,126.86
Observed WS=U120-00-00      ,U120-00-00_0003 ,7745.163,0,125.09,126.78
Observed WS=U120-00-00      ,U120-00-00_0003 ,7660.303,0,125.04,126.74
Observed WS=U120-00-00      ,U120-00-00_0003 ,7542.502,0,124.97,126.67
Observed WS=U120-00-00      ,U120-00-00_0003 ,7360.69 ,0,124.86,126.57
Observed WS=U120-00-00      ,U120-00-00_0003 ,6817.104,0,124.54,126.22
Observed WS=U120-00-00      ,U120-00-00_0003 ,5915.036,0,123.86,125.51
Observed WS=U120-00-00      ,U120-00-00_0003 ,4916.15 ,0,123.08,124.72
Observed WS=U120-00-00      ,U120-00-00_0003 ,3978.517,0,122.38,123.97
Observed WS=U120-00-00      ,U120-00-00_0003 ,3608.501,0,121.76,123.26
Observed WS=U120-00-00      ,U120-00-00_0003 ,3387.121,0,121.07,122.53
Observed WS=U120-00-00      ,U120-00-00_0003 ,2871.229,0,118.91,120.38
Observed WS=U120-00-00      ,U120-00-00_0003 ,2597.571,0,117.85,119.44
Observed WS=U120-00-00      ,U120-00-00_0003 ,2407.601,0,116.88,118.53
Observed WS=U120-00-00      ,U120-00-00_0003 ,2096.011,0,115.41,117.2
Observed WS=U120-00-00      ,U120-00-00_0003 ,2013.345,0,114.54,116.37
Observed WS=U120-00-00      ,U120-00-00_0003 ,1924.927,0,114.43,116.27
Observed WS=U120-00-00      ,U120-00-00_0003 ,1622.732,0,114.05,115.94
Observed WS=U120-00-00      ,U120-00-00_0003 ,1125.422,0,113.68,115.56
Observed WS=U120-00-00      ,U120-00-00_0003 ,997.7322,0,113.59,115.46
Observed WS=U120-00-00      ,U120-00-00_0003 ,948.8668,0,113.49,115.33
Observed WS=U120-00-00      ,U120-00-00_0003 ,873.4696,0,113.34,115.14
Observed WS=U120-00-00      ,U120-00-00_0003 ,783.011 ,0,113.05,114.79
Observed WS=U120-00-00      ,U120-00-00_0003 ,736.1243,0,112.9,114.62
Observed WS=U120-00-00      ,U120-00-00_0003 ,628.7742,0,112.56,114.25
Observed WS=U120-00-00      ,U120-00-00_0003 ,534.5508,0,112.27,113.91
Observed WS=U120-00-00      ,U120-00-00_0003 ,307.2545,0,111.55,113.11
DSS Import StartDate=
DSS Import StartTime=
DSS Import EndDate=
DSS Import EndTime=
DSS Import GetInterval= 0 
DSS Import Interval=
DSS Import GetPeak= 0 
DSS Import FillOption= 0 
