Geom Title=U120-00-00 2019 (Re-Study)
Program Version=4.10
Viewing Rectangle= 3000875.53064108 , 3020445.36343048 , 13891067.5316993 , 13877951.119251 

River Reach=U120-00-00      ,U120-00-00_0003 
Reach XY= 549 
3001067.3917468613890847.34938043002360.4816803613890894.5120158
3002440.7771234413890898.58812313002473.7941177813890899.3282791
3002486.2235548613890899.60714993002577.1164176913890899.4030821
3002622.1550415313890901.84894343002666.3787063713890901.6448755
3002709.3796046113890901.4411358 3002781.115681613890902.2564228
3002792.7062096113890912.13698053002793.5470871913890912.8538426
3002874.8615571113890917.74490893002940.4834731113890918.3561282
3002981.4463176913890919.98670243002982.1054371113890919.7439207
3002996.9348037813890914.28034893003036.87894961 13890915.095636
3003048.6988078713890918.76393583003069.2699609413890923.2445699
3003069.2824281213890923.24555413003123.2882256113890925.2852482
3003169.2418738613890927.25998183003227.63152087 13890929.768835
3003260.7101948613890930.93353093003314.4482763613890932.8255874
3003369.6653575313890935.30950643003440.9739419413890938.1733458
3003577.1406643513890938.9394204 3003606.704909713890933.8098374
 3003621.771808713890931.19534133003624.3157668613890917.6710902
 3003625.643848213890910.61204923003625.1005421913890847.2315985
3003636.24126795 13890638.2733553003643.5175001213890411.0992687
3003664.7727069413889993.08206013003683.4511472713889647.2034868
3003696.3330112713889297.46041983003705.9947373613889155.1155602
3003732.3923223613888843.59551393003740.0009029513888674.8527412
3003746.5222153713888469.42697093003756.0326950313888274.5986204
3003764.9995406113888092.81322293003771.2495281113887976.5139148
3003774.7816732813887859.39931963003779.4010866113887717.8293928
3003781.5749667713887651.25636323003790.2701593613887522.1857552
 3003794.6179197 13887317.5752723003798.1503929513887200.4606768
3003797.8787399413887189.59160413003799.2373330313887177.0922853
3003803.8567463613887168.9403987 3003809.019465713887163.2340453
3003814.45416611 13887158.8866133003821.2471315313887157.2560389
3003828.8557121213887157.25603893004003.5761631913887167.0384996
3004075.8555461913887170.02733883004175.03612211 13887173.559812
3004304.9216891113887177.90757243004385.3267120313887180.9584193
3004454.1589234513887183.33407073004551.5015765313887186.1910204
3004616.7265116913887187.75368133004628.2770135313887185.7874779
3004648.6565659513887181.16806453004661.1562128713887183.6135977
3004684.5246044413887189.31995113004695.7060125313887189.6457379
3004702.6361167713887189.84750913004714.9080738613887190.7339903
3004721.2079300313887192.30911833004738.0550091913887197.2001847
3004763.8689339513887198.55877783004783.9768333613887196.3848976
3004790.2707840213887196.17853323004800.5522595213887195.8415916
3004815.2254585313887193.39605843004834.7897238613887191.2221783
3004854.89762327 13887187.4180523004878.2660148613887181.1680645
3004901.0911004413887178.17922543004931.2531136113887178.4508784
3004986.5302340213887179.77928783004992.2605375213887179.6910333
3005052.5599576113887178.76026093005137.7464670213887181.0020543
3005186.2496508713887178.14904173005244.7390351913887170.8124422
 3005283.888563213887165.25930373005287.7448546913887165.4472954
3005292.5712886213887164.0276788 3005302.209392713887162.6605556
3005351.9353431213887153.48964223005390.2489147813887142.4847429
3005427.1359801113887124.14324423005517.2611279513887077.3654506
3005547.1833121913887061.93700383005676.9891549513887000.4394234
3005757.8958172813886961.51430443005790.2992957813886943.3765454
3005813.5318608613886926.25781323005825.7109703613886915.1590821
3005842.1371186113886901.74441083005869.5140323613886880.9380219
3005909.4844248613886843.15791383005937.6825311913886812.4955735
 3005973.395058213886770.94906873005992.9839297813886748.1597442
3006075.1149991213886659.73242763006113.1687287813886619.7620351
3006147.9376881113886577.60135833006171.4816042813886541.7375849
3006194.7522270213886497.93452293006212.2735174413886463.4395131
3006285.0962064413886304.65341343006352.35788295 13886155.648462
 3006381.736761213886090.56558693006408.8226650213886034.6651082
3006449.4774393613885939.80407743006505.3779181113885814.9139073
3006511.4372891913885783.17414133006511.84575294 13885781.035038
3006515.8496819413885767.48322783006535.1321236913885727.6913127
3006543.50316994 13885710.4170693006559.5841745313885698.8012786
3006571.2878912813885685.40399573006581.2977137713885655.8367976
3006587.61134945 13885629.6573883006591.4614073613885619.1859523
3006606.8606547713885575.14306143006617.4866177713885557.8957205
3006624.7241361113885549.42592123006634.6824495213885541.4010029
3006636.3852020213885517.73668013006637.4203049413885503.3472732
3006671.3677436113885439.83263643006779.2330134413885277.4871606
3006833.4392698613885198.09427483006892.2997164413885108.2978664
3006970.0502171113885001.52773883007041.5041424513884896.1263748
3007051.4965765313884881.94890973007105.5660221913884805.2348243
3007203.6439100213884667.59730433007294.8094101113884545.6329813
3007338.3385225213884489.7840116 3007374.996257613884453.0012768
3007418.0214340213884405.61456053007418.0427594513884405.5912666
3007462.3320409513884358.5401796 3007493.685324713884325.2318473
3007534.4995475313884284.00063053007681.6400012813884140.8001295
3007861.99003428 13883994.5701073007958.2893823513883932.2569114
3008027.7475767713883887.00076833008181.2492382813883797.0032449
3008326.9684350313883717.87446623008346.99004853 13883706.980131
3008500.66789077 13883624.2204543008503.3982002713883622.7499845
3008545.1599277713883595.10535483008629.4809533713883527.2104774
3008712.9807863513883431.11749383008755.6887061913883365.4129008
3008814.5491527813883263.57058483008884.3603648513883117.3776357
3008910.0948934413883044.55494673008932.2700459513882964.6141617
3008964.0275283613882914.78814593009006.0271162813882844.3463576
3009012.7584020213882812.12463733009026.0362626213882782.4891979
3009037.5857801913882767.55156373009048.6733564413882748.7641997
3009063.1490492813882713.19143623009086.7795794513882676.3906568
3009147.2827392813882562.50276123009157.9598832713882541.1484732
3009179.0398936113882478.72930673009201.2153741913882389.4804694
3009205.3219932813882379.89846763009214.0824744413882366.7574178
3009216.5463802813882350.33126953009234.3416202813882330.3460733
3009255.76808661 13882306.4278143009269.6578226113882290.9232519
3009312.7509122813882130.00034533009317.7499180313882045.9998572
3009317.9569386113882039.21214113009317.1921763613881952.1473546
3009321.3332441913881942.84389553009327.3561980313881936.5469921
3009326.8086269513881925.32260513009322.97595744 13881917.656938
3009316.80995928 13881908.6884523009310.9300497813881900.1356476
3009315.5842399413881838.81129523009332.9742970313881747.9620674
3009347.3413942813881672.90709943009350.90044227 13881670.169244
3009351.7216348613881649.63647673009357.1970176113881642.7923303
3009357.7445886913881631.84156483009352.9811467813881621.1411269
3009361.4568516213881581.5837913 3009384.848865213881511.0189718
3009402.6427928713881489.48161333009409.2133177813881455.5341746
3009425.0918949413881419.39645163009440.4229010313881387.6392973
3009450.9245204513881361.07635833009468.3473858513881317.0065645
3009475.7394314413881304.68703543009544.4555013613881202.8447194
3009587.7109922813881143.98427283009633.9779601113881091.9683007
3009677.5074006213881052.5454793 3009707.348220213881018.0504695
3009729.38689002 13881002.6508943009837.5940226913880930.7865364
3009873.93712586 13880908.8164363009947.6495768613880864.4658029
3010025.6736990213880833.66665193010050.7235176913880825.6587939
3010100.33988827 13880823.0213323010100.4032083613880823.0042717
3010121.5616306113880814.16078543010147.2272616913880803.6890216
3010165.2961231913880797.93968933010175.1517465313880791.7799247
3010398.70904219 13880710.5845493010476.9385445313880665.9366724
3010557.8799836913880605.80359063010563.8343681113880588.9670101
 3010573.279559213880578.08448593010584.7778957813880570.6927684
3010600.5879035313880561.45295753010612.4970004413880553.8558598
3010629.9497214413880543.17904393010644.5281043613880538.0458521
 3010656.436873213880531.68070743010665.0608716913880525.1101824
3010675.3272553513880515.6649913 3010687.236024213880504.9881754
3010695.8596946213880489.58859993010714.3393164413880478.2956435
3010720.9098413613880473.77826413010741.0318483613880454.2723976
3010782.7131954413880414.02838363010823.1625896113880375.2213746
3010881.2700849513880305.20478243010888.87046345 13880299.301907
3010902.4189927713880288.77863413010913.3923960313880276.5260339
3010935.8871016913880251.40928633010980.2377347813880209.1117987
3011071.6082869513880135.60472783011160.2518104513880074.0008484
3011221.4423048613880040.40183433011326.6248372813879954.5060087
3011333.4004142713879948.14086393011345.9253236113879939.9279539
3011353.1119890213879936.64285543011357.8344205313879935.8213348
3011361.1195189513879941.36528693011366.8688512713879946.0877184
3011376.3137142813879947.9358118 3011382.884239213879943.4184324
3011386.3750458713879936.64285543011403.2116263713879923.7071858
3011424.3605341913879902.55827793011436.0639228713879898.2466068
3011442.0186353613879900.5051324 3011449.204972713879905.6383243
3011459.9018016913879909.4657444 3011548.228396713879865.0928017
3011688.4111871913879796.60967093011747.7355436113879764.9555348
3011801.5464596213879736.24332193011917.7614502813879677.5200141
3012023.7103853713879628.65200163012060.46392077 13879611.815093
3012069.2929713613879597.64779853012102.3070129513879595.7659125
3012108.9208448513879595.38894483012119.8548781113879587.7895505
3012137.8722305313879575.26693783012141.4539162813879577.9716568
3012147.9332340213879582.86403543012159.2261904513879585.7387016
3012169.4925741113879579.1681767 3012173.646109113879564.7138093
3012174.6257659513879561.30469543012183.8055376113879561.0497746
3012204.1926359413879560.48350283012252.1908995213879536.3857819
3012303.9818064413879510.38353743012357.5722504413879497.6532478
3012387.8438434513879486.65458223012419.1702243513879475.2727152
3012468.5999155313879461.54538043012561.4081288613879428.9224142
3012648.5204874413879376.30506533012694.1034015313879361.3162502
3012751.6167379513879343.38846453012808.0598665313879325.7946677
3012847.9830150313879308.07980813012933.92542845 13879269.945698
3012954.8538642813879268.97785223012969.4470109513879268.3029848
3013010.5122175213879253.72460183013041.3343343613879251.7626635
3013099.6370392713879232.94052273013180.4091874513879206.8644594
3013202.31071845  13879207.685983013222.8434857713879200.2939344
3013235.43663645 13879193.4497883013259.8024013613879191.5334533
3013275.4070289413879186.60564163013280.3348406113879181.4038804
3013313.4610866913879170.72706443013327.1493795213879166.8940669
 3013348.510229213879155.96593913013431.4208245313879131.4604107
3013467.0457532713879115.42566593013487.5299642813879114.8754701
3013507.8373383613879114.33052373013540.9635844413879102.8321871
3013682.63521712 13879062.5445383013704.6774958713879047.2568389
3013726.8529764413879043.42416943013747.1117941913879041.5078347
3013759.1458908613879042.37627133013773.6675153713879043.4241694
3013792.0099983713879039.86512143013832.70709544 13879027.828072
3013869.7604990313879016.86844833013901.5179814413879012.7618292
3013949.1537129413879003.45377693013970.7816224413878996.0620594
3013991.8619608613878995.24086693014017.1253617713878996.2513635
3014032.92716745 13878996.8832523014130.6474444413879001.2005006
3014147.3629621913879007.28644643014192.2611663613879007.2864464
 3014205.675837713879013.03577883014296.5673881913879013.5833499
3014308.8869173713879017.9635904 3014358.7129332 13879018.784783
3014365.2834581113879023.43897323014405.5274721113879024.5341154
 3014424.143904713879021.52263843014435.4368611113879016.2155624
3014635.8780612813879023.8851665 3014684.241809713879025.7355565
3014724.1951418713879029.73554853014859.4373254513879034.3897387
3014874.7683315313879039.86512143014914.1911529513879042.8765984
3014933.6287781113879046.9832174 3014998.786128113879046.1616968
3015213.1475760313879044.79293313015228.0799608513879039.6521953
3015246.5474436113879033.29459653015285.4226939413879032.7470254
3015321.0125177813879036.03245193015336.0374221113879042.5685281
3015336.3100593513879042.68729433015449.13660537 13879051.363458
3015640.5017081913879055.47007713015655.8327142713879051.4700851
3015695.2555356913879051.47008513015719.2403958613879054.9182409
3015722.4743132713879058.49861443015757.70062077 13879058.729585
3015779.1828612813879055.3801823 3015889.237103113879055.8267037
3015941.4607519513879057.14395833015972.2930393713879061.7325318
 3016093.447652713879060.97728393016112.5060135313879066.3522732
3016142.0728835313879073.97496143016189.0800073613879087.9503271
3016213.1032532813879088.75872443016385.11603262 13879086.910631
3016408.5234661113879084.29285413016430.3616770213879080.4070351
3016545.1173530213879086.29481863016621.8859002713879084.9979052
3016624.7185717813879084.94869273016739.2888806913879081.0415483
3016779.3780393613879078.31353533016831.08659735  13879073.51302
3016863.27157237 13879062.7335143016877.9011362813879058.4215148
 3016887.749213713879056.72368353016931.4915802813879049.1817039
3016950.2789442813879034.70633913016975.6883422713879022.2326108
 3017008.335258613879012.37698743017038.8263393613879000.3652004
3017064.8515497713878988.9695539 3017081.414180713878976.0876899
3017088.4128543613878970.64413133017095.4390870313878970.8422936
3017110.2802646913878971.26027183017124.4475591913878966.1782609
3017131.3714298613878957.77506253017142.4652396913878944.3111787
3017173.2640626113878938.30528523017199.4434721913878930.7593685
3017230.5109953613878932.09860473017253.0339161913878933.0694033
3017329.2614540313878934.91716863017358.0087718713878935.4165114
3017373.6120871213878935.6871802 3017411.759976713878945.9200993
 3017412.043440713878945.96898383017424.7386252713878948.1609085
3017438.9062478513878950.00900193017454.4596944513878948.6228499
3017463.6995053613878945.69700273017486.1827281113878945.3889324
3017500.5042217813878950.31674413017523.1416436913878948.0070374
3017545.6248664413878944.31117873017590.59164003 13878938.151086
3017624.0085679413878938.9210976 3017642.333990613878945.0808622
3017658.8116479413878949.54673253017720.4096218613878948.1609085
 3017757.060467213878947.39089693017777.5420535213878952.0109664
3017790.1696529413878956.47650873017822.5084990313878956.3226376
3017835.5980397813878954.78261443017842.68201511 13878954.166802
3017850.0737326113878953.55066153017855.6176847813878954.7826144
3017865.0113667713878959.7104261 3017885.030683713878959.8646253
 3017928.457434113878955.24455583017978.5058904413878954.4748723
3017989.9015369413878956.47650873018000.3733007813878958.7865434
3018006.0711240313878960.63463683018040.8738759513878960.4804377
3018050.8836984513878963.09854273018054.8876274413878966.9482725
3018067.2071566113878969.10443623018077.2166510213878969.2583073
3018088.3045553613878964.0224254 3018101.547967213878961.0965782
3018114.17556661 13878964.9463083018159.2962112713878965.4082493
 3018186.553374613878968.33442463018203.1849030313878968.6421668
3018216.2744437813878973.8780487 3018227.516219213878978.0361768
 3018242.299654213878984.04174233018255.3895230313878986.5056481
3018272.4829927813878984.50368363018283.1086276913878982.5017191
3018294.1962039513878980.19201243018301.5879214413878980.5000827
 3018313.907778713878988.96955393018321.9153086113878992.9734829
3018337.3148841113878996.82354093018346.09275369 13878999.749388
3018387.9794809413878999.13324753018400.1451390213878993.5896234
3018412.92660953 13878990.3557063018425.0922676213878987.2756597
3018443.8966919513878984.55814543018463.0636483613878982.4672704
3018482.57902928 13878986.3005963018495.12460786 13878997.103724
3018507.3745833613879000.5728772 3018519.029415713878996.3615995
3018594.1791997713878997.74742353018610.81072819 13878995.745459
3018622.66831602 13878995.7454593018647.76964378  13878991.74153
3018658.85722002 13878994.3596353018673.4867839413878996.6693417
3018684.11241886 13878995.7454593018699.9739356913878988.1995424
3018726.6149585213878973.10803713018741.5525926913878963.0985427
3018748.7904391113878958.94074263018756.3363557813878955.8606963
3018778.0495669413878947.39089693018792.2171895213878938.6133554
3018813.1603891113878921.05761633018826.8660703613878894.1085232
3018831.0238704413878880.55704113018830.25385886 13878872.395312
3018824.2463249413878853.02592823018821.3221181913878843.5981255
3018821.32211819 13878786.6198933018821.3221181913878734.5694722
3018826.0960587713878719.16989673018831.1780696113878684.2129456
 3018835.3358697 13878668.6594993018845.6534343713878651.4118301
3018854.2771047813878629.08247843018862.9011032713878607.3692673
3018884.1523731113878569.33226983018890.6202079513878559.1685763
3018924.03713585 13878533.2975653018945.7503470313878524.0006676
3019007.6567192813878505.88620253019027.9841064413878488.4849906
3019052.9312350313878475.24125073019116.2234312713878456.1458164
3019154.4142997713878447.98408733019244.96333128 13878444.904041
3019288.3900816913878450.60186433019328.12097336 13878456.915828
3019379.2471834413878467.2333927 3019400.344582213878475.2412507
3019464.2529189413878525.44357813019515.6871992813878572.5661873
3019543.5605031113878588.11996193019554.4131716913878591.8010569
3019555.0001127713878591.99987543019613.1663350313878615.9929377
3019640.4234983613878625.54081893019687.5461075313878633.0864074
3019706.7954128513878643.55817133019737.1326225313878661.5755237
 3019835.843383113878750.89293043019875.1123334513878784.1559872
3019921.31105994  13878828.198553019949.4921059513878848.3720661
3019980.1370577813878867.92944173020006.9998649513878878.0012719
3020031.4174670313878890.56653553020074.99808852 13878908.584216
3020127.6646498613878925.67768583020169.7052481913878947.6989672
 3020253.502324713879018.0016481
Rch Text X Y=3005863.9193913,13887890.0124473
Reverse River Text= 0 

Type RM Length L Ch R = 1 ,19078.15,895.46,869.69,844.93
Node Name=S
XS GIS Cut Line=4
3006079.00016195 13887515.0000743005847.9999677813886944.9999017
3005765.0001337813886802.99985763005557.9998916113886512.0001115
Node Last Edited Time=Apr/18/2012 17:34:15
#Sta/Elev= 233 
       0  141.47    4.96  141.54    9.92  141.72   14.88  141.85   19.84     142
    24.8  142.12   29.76  142.17   34.72   142.3   39.68   142.3   44.64  142.42
    49.6  142.42   54.56  142.35   59.52  142.33   64.48  142.37   69.44  142.42
    74.4  142.39   79.36  142.35   84.32  142.42   89.28  142.32   94.24  142.31
    99.2  142.28  104.16  142.45  109.12  142.88  114.08   142.9  119.04  142.75
     124  142.74  128.96  142.49  133.92  142.67  138.88  143.09  143.84  143.01
   148.8  142.84  153.76   142.8  158.72  142.63  163.68  142.47  168.64  142.43
   173.6  142.73  178.56   142.6  183.52  142.64  188.48  142.63  193.44  142.28
   198.4   142.2  203.36  142.51  208.32  142.63  213.28  142.89  218.24  142.86
   223.2  142.53  228.16  142.59  233.12  142.88  238.08  142.82  243.04  142.62
     248  142.24  252.96     142  257.92  142.29  262.88   142.9  267.84  142.88
   272.8   142.9  277.76  142.96  282.72  142.68  287.68  142.35  292.64  141.74
   297.6  141.13  302.55  140.75  307.51  141.19  312.47  141.81  317.43  141.96
  322.39  141.65  327.35  140.92  332.31  139.86  337.27  139.14  342.23   137.9
  347.19  138.65  352.15  139.73  357.11  140.51  362.07  140.72  367.03  140.53
  371.99  140.26  376.95  140.12  381.91   140.3  386.87  140.76  391.83  141.19
  396.79  141.47  401.75  141.13  406.71  140.32  411.67  138.67  416.63  136.99
  421.59  135.37  426.55  133.81  431.51  132.66  436.47  132.14  441.43  131.94
  446.39  131.79  451.35  131.74  456.31  131.66  461.27   131.6  466.23  131.56
  471.19  131.47  476.15  131.44  481.11  131.38  486.07  131.35  491.03  131.34
  495.99  131.39  500.95  131.45  505.91  131.41  510.87  131.35  515.83  131.31
  520.79  131.23  525.75  132.04  530.71  133.77  535.67  135.67  540.63  137.76
  545.59  139.58  550.55  140.79  555.51  141.38  560.47  141.21  565.43  140.33
  570.39  139.78  575.35  139.82  580.31  139.89  585.27  140.01  590.23  140.03
  595.19  140.05  600.15  140.14  605.11  139.82  610.07     139  615.03  137.53
  616.76  136.92  620.01  135.76     625  134.11  629.98  132.63  634.97  131.38
  639.95  130.63  644.93  129.96  649.92  129.31   654.9  129.37  659.89  130.11
  664.87  130.72  669.86  131.16  674.84   132.1  679.82  133.62  684.81   135.4
  689.79  137.26  691.82  137.93  694.78  138.91  699.76  140.08  704.74  140.26
  709.73   140.1  714.71  140.03   719.7  140.05  724.68  139.99  729.67  139.81
  734.65   139.7  739.63  140.23  744.62  141.36   749.6  143.04  750.54  143.19
  754.59  143.82  759.57  143.69  764.56  143.46  769.54  143.22  774.52  143.11
  779.51  143.08  784.47  143.08  789.43  143.07  794.39  143.03  799.35  142.98
  804.31  142.99  809.27  142.84  814.23  142.83  819.19  142.75  824.15  142.79
  829.11  142.75  834.07  142.71  839.03  142.65  843.99  142.39  848.95  142.18
  853.91  141.67  858.87  141.18  863.83  140.91  868.79  140.82  873.75  140.72
  878.71  140.32  883.67   139.9  888.63     140  893.59  139.95  898.55  139.85
  903.51  140.06  908.47  140.08  913.43  140.26  918.39  140.64  923.34  141.69
   928.3  142.97  933.26  143.23  938.22  143.33  943.18  143.36  948.14  143.34
   953.1  143.31  958.06   143.3  963.02  143.28  967.98  143.33  972.94  143.31
   977.9  143.27  982.86  143.19  987.82   143.2  992.78   143.2  997.74   143.2
  1002.7  143.18 1007.66  143.14 1012.62   143.2 1017.58  143.23 1022.54  143.23
  1027.5   143.2 1032.46  143.16 1037.42  143.08 1042.38  143.11 1047.34  143.23
  1052.3  143.37 1057.26  143.36 1062.22  143.36 1067.18  143.37 1072.14  143.41
  1077.1  143.41 1082.06  143.43 1087.02  143.49 1091.98  143.49 1096.94  143.37
  1101.9  143.29 1106.86  143.24 1111.82  143.23 1116.78  143.21 1121.74  143.06
  1126.7  143.17 1131.66  143.24 1136.62  143.17
#Mann= 4 ,-1 , 0 
       0     .07       0  600.15     .04       0  704.74     .07       0
  750.54     .15       0
#Block Obstruct= 2 ,-1 
  317.43  362.07  140.72  396.79  555.51  141.38
Bank Sta=600.15,704.74
XS Rating Curve= 0 ,0
Exp/Cntr=0.3,0.1

Type RM Length L Ch R = 1 ,18208.46,180.14,183.43,187.56
XS GIS Cut Line=6
3007037.9998843713886740.99998163006709.9998841913886456.9998934
3006358.9999300213886225.00002943006285.0000780213886198.0000834
3005869.9999237813886091.99996733005454.0000996113885905.0000132
Node Last Edited Time=Oct/29/2012 06:46:15
#Sta/Elev= 370 
       0   141.8    4.99  141.78    9.97  141.82   14.96  141.81   19.95  141.77
   24.93  141.74   29.92   141.7   34.91  141.63    39.9  141.48   44.88  141.34
   49.87  141.23   54.86  141.08   59.84  140.89   64.83  140.66   69.82  140.51
    74.8  140.46   79.79  140.33   84.78  140.13   89.77  140.11   94.75  140.22
   99.74  140.32  104.73  140.36  109.71  140.44   114.7  140.45  119.69  140.44
  124.67  140.49  129.66  140.52  134.65  140.56  139.64  140.58  144.62  140.53
  149.61   140.6   154.6   140.6  159.58  140.56  164.57  140.42  169.56  140.11
  174.54  139.78  179.53  139.48  184.52  139.32   189.5  139.41  194.49  139.62
  199.48  139.86  204.47  140.04  209.45  140.22  214.44  140.46  219.43  140.64
  224.41   140.6   229.4  140.57  234.39  140.43  239.37  140.15  244.36  139.67
  249.35   139.5  254.34  139.56  259.32  139.69  264.31  139.92   269.3  140.27
  274.28  140.52  279.27  140.63  284.26   140.7  289.24   140.7  294.23  140.68
  299.22  140.65  304.21  140.64  309.19  140.68  314.18  140.71  319.17  140.77
  324.15  140.81  329.14  140.89  334.13  140.93  339.11  141.04   344.1  141.05
  349.09  140.93  354.08   140.9  359.06   140.8  364.05  140.59  369.04  140.38
  374.02  140.18  379.01  139.97     384  139.81  388.98  139.73  393.97  139.66
  398.96   139.7  403.94  139.71  408.93  139.71  413.92  139.72  418.91  139.72
  423.89  139.74  428.88  139.76  433.87  139.74  438.82  139.71  443.77  139.68
  448.72  139.69  453.67  139.73  458.62  139.78  463.57   139.9  468.52  140.02
  473.47  140.06  478.42  140.16  483.37  140.22  488.32  140.19  493.27  140.14
  498.22  140.13  503.17  140.08  508.12  140.01  513.07  139.93  518.02  139.99
  522.97  140.14  527.92  140.26  532.86  140.38  537.81  140.33  542.76  140.43
  547.71   140.5  552.66  140.58  557.61  140.68  562.56  140.73  567.51  140.75
  572.46  140.76  577.41  140.78  582.36  140.76  587.31  140.69  592.26  140.71
  597.21  140.73  602.16  140.67  607.11  140.61  612.06  140.53  617.01  140.45
  621.96   140.4  626.91  140.29  631.86  140.26  636.81  140.22  641.76  140.17
  646.71  140.13  651.66  140.01  656.61  139.93  661.56  139.86  666.51  139.82
  671.46  139.76  676.41  139.77  681.36  139.66  686.31  139.57  691.26  139.55
  696.21  139.54  701.16  139.46  706.11  139.46  711.06  139.46  716.01  139.47
  720.96  139.43  725.91  139.37  730.86  139.27  735.81  139.16  740.76   139.2
  745.71  139.17  750.66  139.06  755.61  138.94  760.56  139.23  765.51  139.77
  770.46  140.22  775.41  140.46  780.36  140.57  785.31   140.5  790.26  140.36
  795.21   139.9  800.16  138.92  805.11  138.14  810.06  137.97  815.01  138.25
  819.96  138.58  824.91   138.8  829.86  139.04  834.81  139.17  839.76  139.36
  844.71  139.32  849.66  138.42  854.61  136.92  855.29  136.67  859.53  135.13
  864.46  133.27  869.38  131.47   874.3  130.13  879.23  129.19  884.15  128.73
  889.07   128.7     894  128.74  898.92  128.94  903.84  129.68  908.77  131.27
  913.69  132.95  918.61  134.56  923.54  135.84  927.95  137.11  928.46  137.25
  933.38  138.56  938.36  139.03  943.34  138.97  948.32  138.83   953.3  138.68
  958.28  138.59  963.27   138.5  968.25  138.16  973.23  138.18  978.21  139.08
  983.19  140.02  988.17  140.72  993.15  141.19  998.13  141.67 1003.11  142.12
  1007.3  142.33 1008.09  142.37 1013.07  142.32 1018.05  142.36 1023.03  142.44
 1028.01  142.43 1032.99  142.42 1037.97  142.38 1042.95  142.35 1047.93  142.36
 1052.91  142.33 1057.89  142.35 1062.88  142.36 1067.86  142.39 1072.84  142.39
 1077.82  142.36  1082.8   142.3 1087.78  142.27 1092.76  142.26 1097.74  142.25
 1102.72  142.23  1107.7  142.05 1112.68  141.82 1117.66  141.76 1122.64     142
 1127.62  142.17  1132.6  142.28 1137.58   142.3 1142.56   142.3 1147.54  142.27
 1152.52  142.22  1157.5  142.19 1162.49  141.99 1167.47  141.87 1172.45  141.83
 1177.43  141.88 1182.41   142.1 1187.39   142.2 1192.37  142.27 1197.35  142.29
 1202.33  142.23 1207.31  142.14 1212.29  142.01 1217.27  141.88 1222.25   141.9
 1227.23  142.04 1232.21  142.16 1237.19  142.19 1242.17  142.25 1247.15  142.24
 1252.13  142.28 1257.11  142.59 1262.09  142.59 1267.08  142.39 1272.06  142.37
 1277.04  142.28 1282.02  142.32    1287  142.28 1291.98  142.11 1296.96  141.98
 1301.94  142.01 1306.92  142.13  1311.9  142.21 1316.88  142.21 1321.86  142.18
 1326.84   142.1 1331.82  142.02  1336.8  141.87 1341.78  141.93 1346.76  141.95
 1351.74  141.91 1356.72  141.85  1361.7  141.84 1366.66  141.79 1371.62  141.61
 1376.58  141.07 1381.53  140.05 1386.49   139.2 1391.45  139.06 1396.41  139.18
 1401.36  138.65 1406.32   138.5 1411.28  138.63 1416.24  138.62  1421.2  138.56
 1426.15  138.85 1431.11  139.25 1436.07  139.57 1441.03  139.98 1445.98   140.4
 1450.94  140.85  1455.9  141.27 1460.86  141.64 1465.81  141.86 1470.77   141.9
 1475.73  141.89 1480.69  141.93 1485.64  141.98  1490.6  142.11 1495.56  142.13
 1500.52  142.13 1505.47  142.08 1510.43  142.09 1515.39  142.07 1520.35  142.09
  1525.3  142.25 1530.26  142.49 1535.22  142.48 1540.18  142.67 1545.13  142.68
 1550.09  142.69 1555.05  142.78 1560.01  142.88 1564.96  142.95 1569.92  142.96
 1574.88  142.95 1579.84  142.92 1584.79  142.81 1589.75  142.82 1594.71  142.86
 1599.67   142.9 1604.62  142.91 1609.58  142.93 1614.54  142.96  1619.5  142.86
 1624.45  142.64 1629.41  142.34 1634.37  142.07 1639.33  141.92 1644.28  142.11
 1649.24  142.38  1654.2  142.56 1659.16  142.73 1664.12   142.7 1669.07  142.73
 1674.03  142.74 1678.99  142.75 1683.95  142.72  1688.9  142.72 1693.86  142.76
 1698.82  142.83 1703.78  142.86 1708.73  142.95 1713.69  142.93 1718.65  142.87
 1723.61  142.75 1728.56  142.73 1733.52  142.77 1738.48   142.8 1743.44  142.82
 1748.39  142.85 1753.35  142.95 1758.31  142.74 1763.27  142.58 1768.22  142.56
 1773.18  142.42 1778.14  142.41  1783.1   142.6 1788.05  142.93 1793.01  143.05
 1797.97  143.07 1802.93  143.12 1807.88  143.12 1812.84  143.16  1817.8  143.25
#Mann= 4 ,-1 , 0 
       0     .07       0  844.71     .04       0  938.36     .07       0
  1007.3     .15       0
Bank Sta=844.71,938.36
XS Rating Curve= 0 ,0
Exp/Cntr=0.3,0.1

Type RM Length L Ch R = 1 ,18025.04,564.02,569.4,558.01
XS GIS Cut Line=6
3006842.9999462813886310.9998574 3006528.999918113886127.9998953
3006518.9999381213886101.99994733006376.9998940213886034.0000833
3006001.9999878613885838.00014723005462.0000836113885838.0001472
Node Last Edited Time=Jan/19/2012 11:14:30
#Sta/Elev= 308 
       0  142.18    4.98  142.09    9.96  142.05   14.94  141.97   19.91  141.92
   24.89  141.93   29.87  141.95   34.85   141.9   39.83   141.8   44.81  141.75
   49.79  141.74   54.76  141.74   59.74  141.68   64.72  141.59    69.7   141.6