Flow Title=Conveyance Flows
Program Version=4.10
Number of Profiles= 1 
Profile Names=100YR_CO
River Rch & RM=U120-00-00,U120-00-00_0003 ,19078.15
    4200
Boundary for River Rch & Prof#=U120-00-00,U120-00-00_0003 , 1 
Up Type= 0 
Dn Type= 3 
Dn Slope=0.0048
DSS Import StartDate=
DSS Import StartTime=
DSS Import EndDate=
DSS Import EndTime=
DSS Import GetInterval= 0 
DSS Import Interval=
DSS Import GetPeak= 0 
DSS Import FillOption= 0 
