Geom Title=U102-00-00 2020
Program Version=4.10
Viewing Rectangle= 2976761.51019467 , 3036681.54267721 , 13894306.3332827 , 13855338.4617304 

River Reach=U102-00-00      ,U102-00-00_0197 
Reach XY= 2319 
2977348.96149352 13886232.0262622977365.7386909413886250.4501097
2977644.1931865213886308.98181682978218.2228783713886413.0203226
2978622.0311258613886483.97129622979091.7933096913886571.0111483
2979589.7768937813886662.01621572979942.4668051913886727.9698239
2980212.7536661913886746.00062782980535.7477708613886760.0005998
2980963.7472429413886784.00317642981161.5020967713886790.9992254
2981399.2503089513886804.99919742981584.7499379413886816.0011439
2981769.7498960213886829.00177412981913.5032174413886839.9955185
2982034.2451019413886836.99716492982223.7506284413886815.0018021
2982459.7537653613886772.00188812982572.5002590313886761.9996115
2982631.4991567713886758.00191612982665.8399673613886769.4198723
2982698.0091943613886779.4969518 2982716.047872213886780.6773957
2982724.6564507813886777.85030162982731.7213972813886773.2308883
 2982745.307656213886772.41592932982779.8171016113886772.4159293
2982792.3393862813886772.1085152 2982824.108679713886771.3289892
2982832.2605662813886771.60064222982838.78187869 13886769.426762
2982842.5860049413886766.7095758 2982845.846825213886758.8293423
2982852.3681376113886740.8956511 2982861.384195713886727.3556519
2982864.7693595313886724.84089322982867.3809028613886722.6647164
2982869.7024205313886720.53676792982874.8818721213886719.5288959
2982877.0629701213886720.23755592982879.8142769513886722.6830891
2982883.9409091213886724.05874252982888.6790886113886724.3645162
2982896.6272354413886724.05874252982904.11672178 13886721.918983
2982914.9687341913886714.27660992982927.8079473713886696.0879979
2982957.9994880313886662.99915332982968.0066858513886656.8062523
2982994.1434446113886648.24688632983021.5039541913886645.0014859
2983095.5021657813886634.99888132983134.0106189413886635.3958621
2983159.4685732713886637.96311422983193.74934462 13886640.856153
2983282.5615029513886640.56678352983323.9298585213886637.9631142
2983383.3788866113886631.02021472983448.6136642813886612.0717618
2983555.3618103613886546.98166892983651.4059096113886507.3488741
2983826.1368593613886441.10163132983891.5025422713886390.0006836
2983977.2481056913886325.99654652984032.1111849413886277.6528112
2984074.3473209413886260.00619292984129.4571188513886245.8310244
2984180.67716077 13886247.1443422984202.79194595  13886247.71127
2984264.2662324513886260.15087772984344.3992742713886260.2955624
2984391.5537075313886245.54165492984458.0903198613886204.7517103
2984523.0357280213886163.81740892984587.4027252813886140.8187673
2984613.1497210313886138.79383692984689.0882174413886124.4739837
2984741.4496612713886109.43070672984790.1949706113886088.3126387
2984831.85269569 13886044.7746682984862.5173325213886020.6188764
2984889.1321086913886002.68288872984952.3419560313885964.9306676
2985029.7269718613885925.29787292985060.6809781913885905.9153657
2985105.95483778 13885876.8419332985159.9071576913885824.6251739
2985188.4021794513885785.71547492985198.9612134413885736.5364394
2985201.9989370313885684.89809122985214.29353186 13885669.999827
2985265.6425105313885660.59794292985285.3931271913885638.6780393
2985315.6896545313885605.05409082985330.2401503613885576.3097257
2985337.9652005313885535.3353982 2985354.309984113885513.3492217
2985388.5907554513885477.91130042985396.1261734413885471.4523239
2985415.9286272813885454.47893262985431.5503151913885446.0895137
2985459.2221758713885440.78407812985496.6850274513885435.2873699
2985617.7530267813885435.14301332985654.7818241113885442.0859128
 2985671.9947162 13885449.1734972985684.0002696113885454.8145619
 2985697.018288213885462.62524182985723.4883796113885473.7630148
2985739.54379369 13885480.8505992985754.0083316913885483.1648989
 2985775.126399713885483.74363782985798.8481370213885480.1275034
2985816.9288095213885472.89523432985852.5114155313885447.4376081
2985876.9565766213885426.75359442985885.34599553 13885405.779883
2985889.8955271113885395.95280292985896.1943990313885382.3475152
2985913.2471864413885372.99681212985928.49682786 13885365.220909
2985954.7753186113885355.87742382985979.7988906113885350.5257284
2986006.7030362813885346.04148542986024.3496545313885343.2934594
2986045.4677225213885337.79675132986073.9627442813885334.0362601
2986110.4134587813885326.22525212986155.3979488613885303.9500342
2986182.2450080213885277.82672692986217.3059615213885239.0042979
2986237.3935197713885216.04699482986251.7314176113885199.6608727
2986260.2655212713885182.01425442986259.6818610313885158.3830681
2986259.1083713613885135.14951882986263.0135472713885101.3024736
2986274.15132028  13885084.95769 2986332.546544713885016.1792843
2986340.5432478613884987.46707142986345.7505865213884976.1846136
2986394.0618416113884912.83008152986410.69599469 13884878.115584
2986442.0840552713884796.10196852986458.28415412 13884706.856084
2986477.3772917813884655.94083152986482.11317469 13884650.045174
2986506.3063677713884619.92449932986540.0087281913884583.0400587
2986573.1323496113884546.30030282986594.9735132813884517.6605963
 2986619.273989613884486.85094662986649.0708460213884446.4950562
2986669.1764488713884416.40915832986705.3377938613884364.0477145
2986747.57392986 13884307.0576712986815.3362615313884212.1625196
2986899.0283513713884108.11253092986983.2660437813883998.4920152
 2987071.251760213883883.99421272987131.8651560213883821.6081826
2987189.2511961213883762.54399632987223.7448935213883723.9942046
2987235.6356177813883721.26127042987270.3205877813883713.2904859
2987313.1354627813883708.8062429 2987356.759063213883703.2514639
2987395.5240775213883697.61039912987428.6529482813883702.6517276
2987445.7490426913883706.99784752987448.6811234513883707.5404973
2987473.7768737813883713.66614132987486.9395771213883719.7409323
2987496.7755154413883726.10542092987512.39720336 13883727.696625
2987530.4775477813883725.38232522987547.4010703613883717.5713172
2987567.4787861113883703.78591172987609.5876257713883674.8729118
2987644.0928061213883641.57114112987678.0005466913883586.0020265
 2987708.535590613883508.12554192987737.6090232713883432.7657844
2987760.1736106913883413.81700342987787.8008520313883407.3081582
2987824.2522226913883411.99581282987941.8103865213883473.1817141
2987984.8073477713883500.4595467 2988031.543146713883537.8981201
2988072.7484448613883576.99909182988097.4964268713883593.9974173
2988127.0039137813883599.00265672988148.1111550313883589.8501159
2988172.91786395 13883568.6536362988180.3669960213883528.3758294
 2988188.901099713883485.56095442988204.8121571113883450.2677179
2988238.22514802 13883420.181492 2988278.436353713883375.7754129
2988284.8005141913883355.52512532988278.2916689413883341.0609154
2988235.1874244413883306.34608982988214.3587259513883279.8759983
2988210.7507935313883237.99780132988214.9371368613883191.7872638
2988229.9804138513883160.8332574 2988243.432158613883146.9474584
2988250.10012427 13883144.2017292988260.6450506913883139.8598742
2988293.0455764413883135.08658982988314.4530139413883126.6971709
2988344.2498703613883116.13813682988380.1215177813883101.9629683
2988399.3593401913883093.86259082988437.1118893613883094.2966451
2988460.8336266913883103.98789872988487.7374442813883120.6220518
2988504.3715973613883133.06133132988515.9430965313883150.2742234
2988521.1504351913883160.97794222988528.5273889513883172.2600719
2988537.3505340213883186.43556842988548.3436222813883198.4407938
2988558.3242453613883202.3462978 2988574.813713713883203.6481324
2988598.8248205313883190.91948332988627.0304727713883171.1029219
2988643.8093106213883165.02813092988698.9191085213883157.6511772
2988724.0870371913883160.11016182988804.6544613513883164.7387614
2988809.57243052 13883166.6190072988869.5998695213883164.4493919
2988890.7179375313883158.95301192988920.8041634413883149.8401692
2988997.17671411 13883113.2450982989119.2568505313882999.1203263
2989212.2635542813882897.14579272989290.2273091113882812.6731926
2989341.7206444413882749.46334532989358.6441670213882721.6914192
2989371.7337077713882694.49954442989382.94464336 13882671.210549
2989394.6608272813882657.75847622989411.1502956213882655.7335459
2989422.1319009413882656.59017142989431.5452679413882657.3244219
2989480.4352620213882668.17282542989519.7786872813882673.0907946
2989526.86627153  13882677.285342989603.5278636113882675.1157249
2989636.2177588613882666.87099082989677.0077035313882657.7584762
2989704.2008906213882649.36905732989731.5387624513882635.9169844
2989750.1453525313882628.09383742989769.7250377813882619.8615704
2989828.8846963613882600.18969372989879.2481126913882579.0004316
2989899.1821279413882569.95911112989937.0790337813882556.9410925
2989951.1095175313882541.31940462989982.1133925313882512.2118513
2989998.4086355313882496.91332542990041.5125519513882440.6463776
2990062.1968937813882396.96372222990069.8543587813882384.3918969
2990081.5794009413882365.14193542990093.7293110313882345.7594283
2990110.8651035313882326.27521532990122.2243327813882313.3589025
2990123.3814826913882303.23392282990117.1620069413882269.9656166
2990101.3956342813882215.43455772990099.2302842713882211.2045793
2990095.1758304413882203.28431952990087.9435614513882186.2161122
2990068.8504237813882159.0229251 2990063.643413213882149.9104105
2990060.6056896213882126.33302992990067.5485891113882111.1453962
2990071.3094083713882101.88819692990076.9508012813882093.0647237
2990080.1328815213882086.98960462990088.3776156913882083.5181549
2990111.6652987713882078.88955522990117.99599478 13882076.412526
2990121.6459218613882074.98437932990138.8584858613882067.8964669
2990151.0087240313882055.74655682990158.5303625313882045.9106185
2990172.5608462813882037.08714542990192.0880381913882023.3460311
2990202.6995655313882012.20825812990209.5899716913882004.9759891
 2990234.324174213881975.75787172990254.42977703 13881971.129272
2990294.4861273613881940.45380842990322.55759352 13881917.176624
 2990325.455881713881907.47848072990330.0792320213881892.0083673
2990347.2917960313881848.03634242990347.2917960313881804.9320979
2990341.2166769513881782.65687992990336.1543511213881743.1687699
2990328.9220821113881702.37915342990326.0290432713881658.2624437
2990321.9791826213881621.08863352990313.1835965213881589.1913876
2990309.9736291913881577.55066282990301.1727937813881561.5539757
2990286.97498752 13881535.7482532990287.5537265213881502.1905774
2990293.9178870313881495.24767782990308.8164792813881482.5187007
2990313.3003941913881478.32415532990332.0273908713881477.3294066
 2990348.678276213881470.20081192990367.3973988613881460.3881675
2990384.03155194 13881450.1185032990400.2319788613881448.2379294
2990430.1735200313881448.96135312990449.1101619513881450.2428466
2990469.3722605313881440.86097562990499.7475278713881410.7750778
2990506.5460706913881396.88895072990512.4765050313881378.6639215
2990513.0549159513881364.92247922990516.8157351913881357.8348949
2990516.8157351913881323.69880842990506.5460706913881313.1397744
2990503.3636623613881303.44852082990507.4138511113881291.7323368
2990511.8977660213881277.55716832990503.7977166213881264.2497803
2990491.2134241913881256.43877232990491.2134241913881241.6851929
2990493.9617782813881237.63500412990497.5779127813881216.2275666
2990495.1189281913881203.9329718 2990489.622548113881186.2860254
 2990484.849263713881175.5823067 2990484.270524713881153.8858278
2990491.2134241913881133.92458162990496.8548171113881122.7871367
2990497.1930710213881118.90394232990500.4968701913881081.0030995
 2990504.502767713881050.99594172990512.9630526213881022.1049234
 2990527.374769213880995.49966162990527.8741120213880978.7181991
2990528.0978648713880971.19918532990531.7139993613880938.5096181
2990544.4429765213880909.43585742990565.01445769 13880880.828303
2990574.5288743713880864.11376952990580.7004499413880856.6564354
2990594.0721423613880853.31359432990601.52947652  13880857.17087
2990616.4241317813880858.88248082990645.2442841113880843.5419603
2990667.4988327813880831.99900432990688.1877677713880827.0846441
2990718.4249120213880816.80710562990740.9284759513880800.6043821
2990755.3306781113880791.78320552990768.0173325213880784.0732472
2990778.9605521113880760.99816212990788.98907536 13880676.139736
2990792.3319164413880546.2807438 2990789.246292713880486.6227266
 2990786.625891113880463.88852012990780.5031999513880410.7646106
2990779.7318760313880364.47828582990787.9605341113880307.3917858
2990816.4736004513880275.86822692990829.3610418613880261.6195677
2990879.2152728613880197.81523332990914.61087136 13880168.132878
2990920.4392717813880163.24509252990953.1226053513880150.5157873
2990978.4352187813880148.0568027 2991012.426948713880155.1443869
2991034.9915361113880160.49641042991062.6187774413880168.0177208
2991085.6170910313880174.09283992991118.0176167813880177.2752482
2991142.7518192813880183.35036732991202.2008473613880183.2056825
2991223.1122228713880189.09707492991275.6806872813880188.4126931
 2991294.629140213880185.23061292991313.4329083613880175.9734135
 2991334.406291613880165.84810572991358.4173984413880155.5784412
 2991376.064016713880147.91211792991408.2522725313880147.9997162
2991442.2489236913880153.99642332991462.7062318613880173.6591137
2991503.6408612713880206.3486809 2991534.567308613880230.8184482
2991549.9271860313880240.05104132991569.1650084413880245.2583799
2991584.2492958613880250.99786982991605.5773371913880250.1189345
2991624.4191630313880235.85616782991632.3748557713880216.0399344
 2991637.437509713880188.12365172991647.1284351913880173.3697442
2991654.0716627813880163.10007972991691.9685686113880130.4101844
2991715.0302022713880108.80294422991724.0797248613880100.3239585
2991735.7959087813880085.7150639 2991758.071126713880062.8611069
2991789.7538061113880021.99865592991814.6274440313880011.8014978
2991831.84000802 13880011.0780742991845.1473961213880013.5370586
2991858.0318847713880017.93960892991875.0889372813880020.0462319
2991888.5406820313880022.36053182991905.4642046113880023.9517359
2991920.7965230213880026.26603582991947.7006686913880028.0015966
2991966.5044368713880027.85691192991997.0243889413880027.5678704
2992005.4138078513880030.60526592992012.5013921113880032.9195658
 2992029.7142842 13880032.7748812992049.2411480213880030.4605812
2992065.5862596913880028.5803356 2992083.666932213880024.3854621
2992106.8099305313880011.8014978 2992122.576303213879994.0101948
2992133.7137481113879976.6526179 2992144.851521113879959.1506844
2992152.5178443613879946.85576152992162.0644131913879937.8879317
2992161.1963046913879898.39982172992158.01422444 13879890.444457
2992153.2409400213879877.7154799 2992151.757347213879870.8490238
2992147.0211361913879848.93141672992146.4427252713879816.9646171
2992155.7478247713879744.00314892992166.2497722813879699.9956909
2992186.2464514413879676.00131642992210.5203530313879658.7231357
2992252.0333933513879634.56767222992297.8859919513879606.6510614
2992315.67729494 13879590.1615932992321.6077292713879561.3772018
2992330.5755591113879537.65546442992341.27927786 13879505.110582
2992352.9954617813879465.91151342992367.1706302813879438.8630111
2992385.8300417813879415.14127382992406.0803293613879399.5195858
 2992422.280428213879395.32504042992432.7026514413879401.5287682
2992440.5057854513879406.17344392992457.4289799513879414.5628629
2992495.0030517713879421.00084212992528.7457664513879423.9991957
2992561.7512778613879417.0031467 2992599.000547213879395.9989236
2992643.5870721913879362.63514522992664.56045544 13879347.158142
2992685.1001125313879336.16538182992694.21262711 13879329.945578
2992708.6771651113879322.42393952992718.65778819 13879311.575536
2992724.87759203 13879301.0165022992731.3864372813879292.1930289
2992740.6436366113879274.54641062992761.9067174513879258.3463118
2992779.0044522713879257.72295342992789.6783154513879257.3338466
2992802.6963340313879253.13897312992812.0982181113879244.1711433
2992823.0079731913879234.00974632992852.0020096913879223.0002539
2992861.7116359513879219.58129742992887.1689341113879219.7259822
2992892.3900522713879222.12263092992904.8155523513879227.8263597
2992925.49989419  13879236.504822992945.4608122713879243.8817738
2992951.24656186 13879247.642593 2992961.371869713879249.3781538
2992967.0129345213879253.71771212992972.9433688713879253.2836578
2992980.4650073613879248.07664732992997.0991604513879247.7872778
2993016.6263523513879242.14621292993032.9711359413879236.0710939
2993050.1836999513879228.40477062993065.9500726213879226.9582512
2993084.3201146113879233.03337032993097.4828179513879241.4227892
2993113.5382320313879257.62321612993138.4171192813879289.3003181
 2993158.812091613879317.21660092993178.2484044413879328.9964329
 2993194.7473872 13879336.0006842993216.2512811913879335.0013422
2993242.7344959413879326.68246122993263.8243487813879315.6257248
2993280.7478713513879304.48795182993311.9909191113879286.1182379
2993340.2454557713879273.00409082993363.2483625313879250.0011841
2993376.0685468613879235.4923549 2993425.681964713879203.5258833
2993435.6235458613879200.92910382993445.0644718613879198.4632294
2993470.5217700313879195.85956012993482.67200819  13879190.36318
2993497.4259156913879183.27559582993510.8776604413879174.4521226
 2993543.567555713879168.08796212993570.9054275313879168.0879621
2993582.9109809413879172.86124652993619.0719978713879195.8595601
2993625.7258559513879199.04196842993638.7438745213879200.0544336
2993649.4475932713879197.74013382993664.2011726913879190.7972343
2993683.7283646213879190.50786482993704.1233369413879180.8166112
2993727.7003895313879160.27695412993773.69734478 13879123.103472
2993794.2370018713879110.66386442993827.3606232713879101.1172955
2993846.45376094   13879098.0799 2993854.698495113879092.4385071
2993874.0810022813879087.08681182993898.6705200213879082.8919383
2993914.5815774513879077.82961242993926.4424461113879065.1006353
2993935.8443301913879055.98812072993944.6678033613879028.0715099
2993947.5605141113878982.36392412993948.2839378613878950.8311788
2993949.1517182713878923.63799172993952.6231680213878900.9287195
2993961.59099786 13878872.2890132993981.1181897813878846.8317149
2994003.0026604413878825.9994074 2994034.001286113878810.0004237
2994063.5005709413878801.99683082994089.8686284413878791.4482954
2994113.9020449413878776.24491382994131.1149370213878763.6609494
2994144.5670098713878748.90704192994151.2205398513878735.4549691
2994154.5473048513878709.41893192994163.9491889513878680.9239102
2994172.3386078613878644.76289332994178.1243574513878628.5624664
2994182.6086004413878614.38729792994190.4192803713878602.9604834
2994196.4943994413878593.12454512994202.5695185213878585.3135371
2994225.1341059513878583.57797632994239.3092744513878577.0688029
2994252.4719777713878570.84932722994269.8292265213878567.5222341
2994289.5011031913878571.28305342994301.7484540313878578.0031843
2994310.76385595 13878590.3761912994323.7818745213878614.5319826
2994331.8819239413878624.07855142994348.0823508713878628.9965206
2994375.8539488613878624.80164712994384.3880525213878617.1356519
2994387.8909982713878613.2481925 2994396.248921213878603.9729486
2994402.3240402813878579.52778752994411.1475134513878563.0383192
2994429.0835011913878540.76310132994443.9817653613878521.8146483
2994466.9804070313878501.70904552994484.4823405313878492.7408876
2994507.0682533513878490.13492172994514.5685664413878489.2694378
2994520.4957199413878486.05881432994549.2833920313878470.4656697
2994628.2592839513878453.39746242994684.9891573613878441.2209775
2994706.0783540313878431.99002482994721.9890833613878428.9526294
2994738.1790116113878426.70197772994754.2449243713878424.4687144
2994759.3630243513878416.53139432994771.31313169 13878397.998623
2994782.1133069413878381.02687222994809.3064940313878354.2195111
2994825.2674201113878340.80549592994863.6928681913878308.5115973
2994905.9293322713878253.73939712994905.9293322713878249.2820569
2994905.9293322713878239.27485912994909.97919294 13878226.160384
2994926.5654458613878214.58888482994939.4870079513878195.4957472
2994959.7372955213878171.58109692994983.6519458613878166.9524972
2995002.74508353 13878155.5739112995025.9681341913878150.1090269
2995035.0826172813878148.30883372995060.7958204413878143.2307599
2995083.5533208513878148.43809852995109.2035320313878160.9738346
2995122.0670233713878170.01646742995148.1611312813878188.3599347
2995161.4685193613878196.45998412995173.9061585213878198.8084046
2995189.0475324413878201.66732282995201.5832685213878203.9816226
2995213.7335066913878211.31034812995219.7121692713878221.1462864
2995222.8368349413878225.71287832995227.2338077713878232.1390466
2995232.8266443613878239.85359812995242.8554956913878241.9749849
2995255.3912317813878243.71087392995267.73438294 13878240.432009
2995282.5844188613878224.23191022995305.4167222813878198.4678541
2995332.1496084513878168.30256012995357.4143216913878143.0378468
2995390.5861713613878128.57330892995427.0506653613878130.9985009
2995468.8871958613878133.78064752995491.8376092813878129.9233718
2995514.1581026913878124.56281822995540.8237317813878118.1589596
2995579.0100071113878109.48017122995610.0604699413878099.0658219
2995633.7822072813878090.77285952995675.2470193713878090.9657725
2995687.9930568613878097.29581242995703.9831823613878105.2373975
2995727.1265087713878113.14453392995730.9837845313878120.2803464
2995748.72685927 13878140.5306342995757.0198216913878145.7379727
2995765.5056971213878148.0522725 2995771.484359713878151.5237223
2995777.8485201913878153.0666982 2995784.984332713878149.7878333
 2995799.641783713878145.73797272995833.1994593613878139.9522231
2995853.8352448613878133.20190852995880.6429340213878122.4017333
2995910.7291599413878096.75152212995930.5936215213878066.8582092
2995937.3436080213878053.74373412995936.3793711113878014.7861349
2995935.6080471913877982.57852212995938.1152600213877966.1855103
2995951.4223200213877948.82793342995979.9655700313877925.4920221
2996008.5088200313877920.67050942996020.8519711913877916.4277358
2996025.4805708713877901.19154582996038.7236546113877890.4648612
2996044.7666215313877885.5701859 2996063.666846213877878.0485474
2996072.0375643713877877.62203912996124.2247959413877874.9625956
2996154.3110218613877865.51248332996173.0183335213877857.2195209
2996189.0438920313877844.08601692996198.6688727713877836.1979094
2996213.7118216913877823.66217332996244.95519753 13877797.818721
 2996277.355395213877759.0540348 2996313.613196713877725.3034461
2996338.1062579513877711.22473412996373.5927355313877700.0387329
2996404.0644593513877691.55318552996430.8718204513877682.8743971
2996444.7579475313877678.43871042996496.05869794 13877655.874123
2996530.61309078  13877653.004052996594.0706410313877634.9817764
2996628.74609661 13877626.9450472996635.6328938613877623.1779942
2996651.3106840313877614.60189592996677.6561037713877611.2433068
 2996699.718723713877608.43032032996710.3115502713877601.6672104
2996724.7901958713877592.42313442996748.7048461913877581.0442202
2996794.2539676913877577.03143292996810.2273609513877564.6512084
2996862.5021907813877557.0012893 2996933.942664713877520.8615978
2996978.2079961213877509.30059732997040.3089217813877482.6858211
2997095.6598609413877471.69273292997148.2319342813877453.1622581
2997169.5251987713877445.65669572997208.8810911913877441.1770459
2997216.9686734413877440.25677212997225.7632752813877436.1550743
2997259.9764614413877420.19939752997279.2064098613877413.7893054
2997297.5839977713877407.66333342997321.1128221213877382.2057071
2997347.0484657713877361.73724412997360.4562473613877351.1555724
2997383.4066607813877340.54831012997394.9781599513877333.2195846
2997415.03553453  13877326.469272997430.0013838613877325.1241284
2997449.3648621913877323.38364632997475.4008993713877313.5477079
2997491.5570350313877301.87187832997498.3509846913877296.9617831
2997507.4155991113877280.76168432997517.4441223613877267.0684702
 2997527.087147713877258.96842082997553.1231848613877246.2397717
 2997577.037835213877242.18958292997605.3881721913877242.7683219
2997619.3838791113877251.00551022997639.1387608613877262.6327835
2997661.5104352813877274.97593472997671.9251126113877281.3400952
2997685.03958769 13877283.4614822997697.1894977813877277.6757324
2997736.6490645313877277.5202209 2997777.805150213877289.8259706
 2997828.912987613877315.86200782997874.6205733613877324.9266222
2997907.7924230213877335.91938232997933.82846019 13877340.933808
2997953.3074238613877350.38392042997968.9291117813877365.2342844
2997984.16497369 13877384.3274222997997.85818778 13877398.213221
2998017.3368233613877415.37788482998037.97293694 13877426.949384
2998062.85182419  13877440.642272998075.1949753613877447.3925846
2998119.1670002813877447.77808252998138.8385488513877457.4211079
2998152.53176294 13877469.7642592998174.3246983613877475.3570956
2998187.6320864413877479.98569532998204.4109242713877495.2218853
2998214.0539496113877505.63623452998231.9899373713877520.2933574
2998280.9763879513877557.9012219 2998291.776563213877564.4582953
2998300.4550235313877568.31557112998318.1980982713877568.1226581
2998328.4198626113877564.45829532998443.9429255313877490.2074596
2998458.6000484413877479.98569532998478.8503360313877460.3141467
2998498.7151256913877450.28529542998518.96541327 13877441.413922
2998543.2655615213877430.03500782998563.9016751113877420.7778084
2998596.8806117813877415.76338282998610.1879998613877411.1347831
2998626.1955137713877405.92777252998632.8185320213877403.0891955
2998639.6954867813877400.14169492998667.2744998613877393.3917084
2998694.4676869413877395.51309522998703.9177992813877415.3778848
2998705.1071013713877418.89132932998712.4036746913877440.4496851
2998716.4538634413877472.46438492998728.0253626113877499.6575719
 2998735.739914113877515.47217292998754.4472257813877531.4793587
2998775.5324854413877549.95077842998777.7831371113877551.9225593
2998788.0049014413877568.50848412998794.7502947713877588.2449932
 2998798.419250713877598.98020792998803.62658936 13877612.866335
2998809.21942595 13877626.173395 2998820.0196012 13877640.637933
2998821.1767511113877650.47387142998825.9982637813877663.3954334
2998838.9198258713877680.75301032998848.7557641913877690.7815335
2998864.7629500313877695.98887222998874.0201493713877701.1958828
2998880.9633769413877703.70309562998887.9062764513877702.3530327
2998901.9849884513877693.09583332998915.67787445 13877683.645721
2998927.6351996113877675.73858462998964.66432503 13877655.874123
2999003.8148372813877634.85218342999033.9010631913877615.5661328
2999079.4160640213877600.90900992999119.3379001913877590.4943325
2999143.2525505313877576.41562052999173.5316894513877561.5655846
2999193.2032380313877546.71522062999225.6037637713877524.5364592
2999262.8258021913877506.21464542999288.4760133613877504.8645825
2999318.7551522713877505.82914752999346.7196632813877508.7218583
2999356.5556016113877514.31469492999528.7793385213877514.1221099
 2999549.608365113877513.15754492999569.4728266913877502.5502827
2999582.5873017813877499.27174592999642.1810146113877497.1503591
2999667.9207925213877491.32130252999729.7513775213877510.0036799
2999790.5032245213877567.00389392999796.6616767813877589.9159216
2999812.0681420313877603.06254882999825.5907527813877614.6018959
2999836.7764259413877628.10219692999842.48606019 13877630.748189
2999852.5910268613877635.43092242999863.3912021113877635.6238354
2999877.0840881213877632.73079662999887.4987654413877622.7019453
2999893.6703410313877601.29450782999893.6703410313877545.9438967
2999899.8415885313877532.05809772999905.4347531913877515.6647578
2999915.0777785313877500.81472192999936.7549005313877487.0007731
2999994.7462543513877480.00472412999995.38667303 13877480.039829
3000012.0861146913877478.05722143000049.1152401113877478.4430474
3000073.7149284513877475.30624273000100.0301645213877462.0497075
3000107.9376290313877455.06186063000124.9090517813877440.0638591
3000136.8663769413877421.16363443000142.8450395313877379.1200833
3000146.8952282813877372.75559483000153.0668038613877348.4554465
3000159.6865412713877332.31932393000162.3240031913877325.8908591
3000174.66682628  13877313.162213000178.9955577713877311.3147728
 3000204.945965213877300.24031983000240.2392016913877302.9404457
3000261.2611412713877305.2547455 3000276.497003213877306.4118954
3000282.47566578 13877312.969297 3000299.447416613877313.3547949
3000310.2472637713877317.59789673000337.4407789413877324.3478832
3000357.3052405313877327.81933293000395.6844288613877327.6264199
3000434.4491151113877325.89085913000464.5353410213877317.4049837
3000493.2715040313877308.14778443000531.2648663713877290.9831205
3000559.8081163613877274.59010873000578.1296020313877262.2469575
3000594.9084398613877243.92547193000608.9871518613877230.6180838
3000623.6446028713877221.55346933000631.1662413613877217.6965217
3000648.52349012 13877212.1033573000656.6235395213877207.8605834
3000673.0168794413877204.19622063000691.9171041113877196.2890842
3000718.7244651913877184.71725693000738.2034288613877174.8816467
3000776.0038781913877160.61002173000799.9185285313877153.2812962
3000807.6330800213877153.08838323000819.5900771213877148.4597835
3000868.3836146913877148.45978353000902.7129423613877131.2951197
3000941.86345461 13877112.9736343000956.7134905313877101.2092219
3000973.8781543713877090.02322063001001.4571674513877074.4015327
3001021.7074550213877056.27263193001032.5076302713877038.5295572
3001124.9966185213876958.00215923001164.0378790213876930.3352198
 3001189.881003213876924.35655723001216.8816053613876922.6209964
3001277.5468383613876922.0019031 3001304.632742213876925.7066201
3001332.5972531913876928.79257193001341.4689546113876932.6495196