Flow Title=Effective FW 2020 (Re-Study)
Program Version=4.10
Number of Profiles= 2 
Profile Names=100YR,FW
River Rch & RM=U102-00-00,U102-00-00_0197 ,82591.49
    6535    6535
River Rch & RM=U102-00-00,U102-00-00_0197 ,81073.43
    6347    6347
River Rch & RM=U102-00-00,U102-00-00_0197 ,80119.4 
    6115    6115
River Rch & RM=U102-00-00,U102-00-00_0197 ,78904.98
    5877    5877
River Rch & RM=U102-00-00,U102-00-00_0197 ,77603.52
    5667    5667
River Rch & RM=U102-00-00,U102-00-00_0197 ,76413.3 
    5387    5387
River Rch & RM=U102-00-00,U102-00-00_0197 ,74758.11
    5314    5314
River Rch & RM=U102-00-00,U102-00-00_0197 ,74313.45
    5122    5122
River Rch & RM=U102-00-00,U102-00-00_0197 ,73108.58
    4944    4944
River Rch & RM=U102-00-00,U102-00-00_0197 ,71949.68
    4850    4850
River Rch & RM=U102-00-00,U102-00-00_0197 ,71324.16
    4639    4639
River Rch & RM=U102-00-00,U102-00-00_0197 ,69870.13
    4440    4440
River Rch & RM=U102-00-00,U102-00-00_0197 ,68441.07
    4331    4331
River Rch & RM=U102-00-00,U102-00-00_0197 ,67625.08
    4153    4153
River Rch & RM=U102-00-00,U102-00-00_0197 ,66253.16
    4014    4014
River Rch & RM=U102-00-00,U102-00-00_0197 ,65139.42
    3823    3823
River Rch & RM=U102-00-00,U102-00-00_0197 ,63543.31
    3781    3781
River Rch & RM=U102-00-00,U102-00-00_0197 ,63182.11
    3864    3864
River Rch & RM=U102-00-00,U102-00-00_0197 ,61507.56
    3931    3931
River Rch & RM=U102-00-00,U102-00-00_0197 ,60176.11
    3983    3983
River Rch & RM=U102-00-00,U102-00-00_0197 ,59168.92
    4039    4039
River Rch & RM=U102-00-00,U102-00-00_0197 ,58086.16
    4125    4125
River Rch & RM=U102-00-00,U102-00-00_0197 ,56470.21
    4210    4210
River Rch & RM=U102-00-00,U102-00-00_0197 ,54885.61
    4245    4245
River Rch & RM=U102-00-00,U102-00-00_0197 ,54244.41
    4308    4308
River Rch & RM=U102-00-00,U102-00-00_0197 ,53109.38
    4383    4383
River Rch & RM=U102-00-00,U102-00-00_0197 ,51782.55
    4419    4419
River Rch & RM=U102-00-00,U102-00-00_0197 ,51146.17
    4488    4488
River Rch & RM=U102-00-00,U102-00-00_0197 ,49965.56
    4553    4553
River Rch & RM=U102-00-00,U102-00-00_0197 ,48859.02
    4613    4613
River Rch & RM=U102-00-00,U102-00-00_0197 ,47847.21
    4694    4694
River Rch & RM=U102-00-00,U102-00-00_0197 ,46507.83
    4939    4939
River Rch & RM=U102-00-00,U102-00-00_0197 ,43344.77
    5187    5187
River Rch & RM=U102-00-00,U102-00-00_0197 ,40319   
    5450    5450
River Rch & RM=U102-00-00,U102-00-00_0197 ,37245.13
    5672    5672
River Rch & RM=U102-00-00,U102-00-00_0197 ,34772.93
    5968    5968
River Rch & RM=U102-00-00,U102-00-00_0197 ,31627.03
    6255    6255
River Rch & RM=U102-00-00,U102-00-00_0197 ,28717.43
    6576    6576
River Rch & RM=U102-00-00,U102-00-00_0197 ,25612.09
    6837    6837
River Rch & RM=U102-00-00,U102-00-00_0197 ,23202.72
    7993    7993
River Rch & RM=U102-00-00,U102-00-00_0197 ,22713.43
    7802    7802
River Rch & RM=U102-00-00,U102-00-00_0197 ,21190.79
    7618    7618
Boundary for River Rch & Prof#=U102-00-00,U102-00-00_0197 , 1 
Up Type= 0 
Dn Type= 1 
Dn Known WS=100.8
Boundary for River Rch & Prof#=U102-00-00,U102-00-00_0197 , 2 
Up Type= 0 
Dn Type= 1 
Dn Known WS=101.8
Observed WS=U102-00-00      ,U102-00-00_0197 ,82591.49,0,158.16,159.06
Observed WS=U102-00-00      ,U102-00-00_0197 ,81731.22,0,158.01,158.96
Observed WS=U102-00-00      ,U102-00-00_0197 ,81073.43,0,157.89,158.87
Observed WS=U102-00-00      ,U102-00-00_0197 ,80119.4 ,0,157.43,158.58
Observed WS=U102-00-00      ,U102-00-00_0197 ,78904.98,0,156.64,157.98
Observed WS=U102-00-00      ,U102-00-00_0197 ,78687.62,0,156.43,157.74
Observed WS=U102-00-00      ,U102-00-00_0197 ,78654.82,0,156.28,157.62
Observed WS=U102-00-00      ,U102-00-00_0197 ,78422.85,0,156.08,157.26
Observed WS=U102-00-00      ,U102-00-00_0197 ,77603.52,0,155.6,156.75
Observed WS=U102-00-00      ,U102-00-00_0197 ,76413.3 ,0,154.81,155.74
Observed WS=U102-00-00      ,U102-00-00_0197 ,74758.11,0,153.89,154.79
Observed WS=U102-00-00      ,U102-00-00_0197 ,74313.45,0,153.53,154.42
Observed WS=U102-00-00      ,U102-00-00_0197 ,73108.58,0,152.52,153.47
Observed WS=U102-00-00      ,U102-00-00_0197 ,71949.68,0,151.23,152.18
Observed WS=U102-00-00      ,U102-00-00_0197 ,71324.16,0,150.35,151.52
Observed WS=U102-00-00      ,U102-00-00_0197 ,69870.13,0,149.28,150.04
Observed WS=U102-00-00      ,U102-00-00_0197 ,69031.07,0,148.94,149.64
Observed WS=U102-00-00      ,U102-00-00_0197 ,68924.32,0,148.84,149.46
Observed WS=U102-00-00      ,U102-00-00_0197 ,68877.77,0,148.38,149.14
Observed WS=U102-00-00      ,U102-00-00_0197 ,68441.07,0,148.05,148.79
Observed WS=U102-00-00      ,U102-00-00_0197 ,67625.08,0,147.5,148.29
Observed WS=U102-00-00      ,U102-00-00_0197 ,66253.16,0,146.34,147.21
Observed WS=U102-00-00      ,U102-00-00_0197 ,65864.54,0,146.04,146.77
Observed WS=U102-00-00      ,U102-00-00_0197 ,65139.42,0,145.46,146.17
Observed WS=U102-00-00      ,U102-00-00_0197 ,64170.07,0,144.7,145.61
Observed WS=U102-00-00      ,U102-00-00_0197 ,63598.3 ,0,144.41,145.37
Observed WS=U102-00-00      ,U102-00-00_0197 ,63543.31,0,144.42,145.37
Observed WS=U102-00-00      ,U102-00-00_0197 ,63435.61,0,144.37,144.97
Observed WS=U102-00-00      ,U102-00-00_0197 ,63182.11,0,144.2,144.81
Observed WS=U102-00-00      ,U102-00-00_0197 ,62613.3 ,0,143.73,144.41
Observed WS=U102-00-00      ,U102-00-00_0197 ,61507.56,0,143.15,143.84
Observed WS=U102-00-00      ,U102-00-00_0197 ,60176.11,0,142.48,143.23
Observed WS=U102-00-00      ,U102-00-00_0197 ,59168.92,0,141.94,142.74
Observed WS=U102-00-00      ,U102-00-00_0197 ,58086.16,0,141.36,142.12
Observed WS=U102-00-00      ,U102-00-00_0197 ,57213.66,0,140.83,141.31
Observed WS=U102-00-00      ,U102-00-00_0197 ,57093.08,0,140.71,140.99
Observed WS=U102-00-00      ,U102-00-00_0197 ,57037.9 ,0,136.95,139.28
Observed WS=U102-00-00      ,U102-00-00_0197 ,56832.31,0,136.92,139.23
Observed WS=U102-00-00      ,U102-00-00_0197 ,56666.18,0,136.69,139.02
Observed WS=U102-00-00      ,U102-00-00_0197 ,56470.21,0,136.41,138.77
Observed WS=U102-00-00      ,U102-00-00_0197 ,56194.89,0,135.49,137.8
Observed WS=U102-00-00      ,U102-00-00_0197 ,56132.66,0,135.2,137.52
Observed WS=U102-00-00      ,U102-00-00_0197 ,55887.13,0,134.52,136.85
Observed WS=U102-00-00      ,U102-00-00_0197 ,55580.36,0,133.67,136.01
Observed WS=U102-00-00      ,U102-00-00_0197 ,55351.98,0,133.04,135.39
Observed WS=U102-00-00      ,U102-00-00_0197 ,54885.61,0,132.59,134.99
Observed WS=U102-00-00      ,U102-00-00_0197 ,54244.41,0,131.97,134.45
Observed WS=U102-00-00      ,U102-00-00_0197 ,53109.38,0,130.86,133.41
Observed WS=U102-00-00      ,U102-00-00_0197 ,52414.93,0,130.45,133.04
Observed WS=U102-00-00      ,U102-00-00_0197 ,52204.51,0,130.33,132.92
Observed WS=U102-00-00      ,U102-00-00_0197 ,52104.96,0,130.27,132.87
Observed WS=U102-00-00      ,U102-00-00_0197 ,52014.66,0,130.22,132.82
Observed WS=U102-00-00      ,U102-00-00_0197 ,51929.68,0,130.18,132.78
Observed WS=U102-00-00      ,U102-00-00_0197 ,51782.55,0,130.11,132.7
Observed WS=U102-00-00      ,U102-00-00_0197 ,51146.17,0,129.79,132.37
Observed WS=U102-00-00      ,U102-00-00_0197 ,50998.88,0,129.67,132.25
Observed WS=U102-00-00      ,U102-00-00_0197 ,49965.56,0,128.86,131.37
Observed WS=U102-00-00      ,U102-00-00_0197 ,48859.02,0,127.64,130.07
Observed WS=U102-00-00      ,U102-00-00_0197 ,47847.21,0,126.34,128.74
Observed WS=U102-00-00      ,U102-00-00_0197 ,47111.71,0,125.62,128.08
Observed WS=U102-00-00      ,U102-00-00_0197 ,46984.47,0,124.9,127.09
Observed WS=U102-00-00      ,U102-00-00_0197 ,46873.4 ,0,124.69,126.85
Observed WS=U102-00-00      ,U102-00-00_0197 ,46507.83,0,124.75,126.99
Observed WS=U102-00-00      ,U102-00-00_0197 ,46401.06,0,124.68,126.9
Observed WS=U102-00-00      ,U102-00-00_0197 ,46387.11,0,124.69,126.91
Observed WS=U102-00-00      ,U102-00-00_0197 ,46369.31,0,122.29,124.72
Observed WS=U102-00-00      ,U102-00-00_0197 ,46304.02,0,122.28,124.71
Observed WS=U102-00-00      ,U102-00-00_0197 ,45910.1 ,0,122.21,124.67
Observed WS=U102-00-00      ,U102-00-00_0197 ,45379.92,0,121.81,124.2
Observed WS=U102-00-00      ,U102-00-00_0197 ,44394.45,0,120.84,123.15
Observed WS=U102-00-00      ,U102-00-00_0197 ,43344.77,0,119.68,121.93
Observed WS=U102-00-00      ,U102-00-00_0197 ,42393.07,0,118.22,120.51
Observed WS=U102-00-00      ,U102-00-00_0197 ,41585.04,0,117.3,119.54
Observed WS=U102-00-00      ,U102-00-00_0197 ,41483.83,0,117.2,119.44
Observed WS=U102-00-00      ,U102-00-00_0197 ,41354.38,0,116.88,119.07
Observed WS=U102-00-00      ,U102-00-00_0197 ,40963.29,0,116.62,118.81
Observed WS=U102-00-00      ,U102-00-00_0197 ,40319   ,0,116.03,118.19
Observed WS=U102-00-00      ,U102-00-00_0197 ,39300.46,0,115.16,117.35
Observed WS=U102-00-00      ,U102-00-00_0197 ,38178.64,0,114.19,116.38
Observed WS=U102-00-00      ,U102-00-00_0197 ,37416.59,0,113.67,115.77
Observed WS=U102-00-00      ,U102-00-00_0197 ,37245.13,0,113.52,115.58
Observed WS=U102-00-00      ,U102-00-00_0197 ,37157.18,0,113.36,115.4
Observed WS=U102-00-00      ,U102-00-00_0197 ,36534.81,0,112.53,114.61
Observed WS=U102-00-00      ,U102-00-00_0197 ,35899.56,0,111.76,113.95
Observed WS=U102-00-00      ,U102-00-00_0197 ,34772.93,0,110.1,112.59
Observed WS=U102-00-00      ,U102-00-00_0197 ,33548.85,0,109.65,112.22
Observed WS=U102-00-00      ,U102-00-00_0197 ,33198.41,0,109.44,111.99
Observed WS=U102-00-00      ,U102-00-00_0197 ,32860.97,0,109.24,111.76
Observed WS=U102-00-00      ,U102-00-00_0197 ,32501.36,0,109.03,111.52
Observed WS=U102-00-00      ,U102-00-00_0197 ,31927.16,0,108.96,111.48
Observed WS=U102-00-00      ,U102-00-00_0197 ,31627.03,0,108.89,111.4
Observed WS=U102-00-00      ,U102-00-00_0197 ,31502.26,0,108.77,111.28
Observed WS=U102-00-00      ,U102-00-00_0197 ,30893.76,0,108.59,111.08
Observed WS=U102-00-00      ,U102-00-00_0197 ,30519.31,0,108.48,110.95
Observed WS=U102-00-00      ,U102-00-00_0197 ,30404.01,0,108.32,110.88
Observed WS=U102-00-00      ,U102-00-00_0197 ,29758.59,0,107.88,110.38
Observed WS=U102-00-00      ,U102-00-00_0197 ,28717.43,0,107.33,109.8
Observed WS=U102-00-00      ,U102-00-00_0197 ,27577.4 ,0,106.66,109.05
Observed WS=U102-00-00      ,U102-00-00_0197 ,26703.26,0,105.75,107.95
Observed WS=U102-00-00      ,U102-00-00_0197 ,25612.09,0,103.3,104.73
Observed WS=U102-00-00      ,U102-00-00_0197 ,24471.49,0,102.93,104.3
Observed WS=U102-00-00      ,U102-00-00_0197 ,24458.73,0,102.92,104.29
Observed WS=U102-00-00      ,U102-00-00_0197 ,24381.77,0,102.87,104.2
Observed WS=U102-00-00      ,U102-00-00_0197 ,24132.54,0,102.7,103.94
Observed WS=U102-00-00      ,U102-00-00_0197 ,24113.3 ,0,102.69,103.92
Observed WS=U102-00-00      ,U102-00-00_0197 ,23852.4 ,0,102.6,103.78
Observed WS=U102-00-00      ,U102-00-00_0197 ,23538.14,0,102.5,103.61
Observed WS=U102-00-00      ,U102-00-00_0197 ,23202.72,0,102.37,103.43
Observed WS=U102-00-00      ,U102-00-00_0197 ,22713.43,0,102.27,103.28
Observed WS=U102-00-00      ,U102-00-00_0197 ,21190.79,0,101.8,102.66
Observed WS=U102-00-00      ,U102-00-00_0197 ,20750.87,0,101.65,102.46
Observed WS=U102-00-00      ,U102-00-00_0197 ,19692.43,0,98.2,99.9
DSS Import StartDate=
DSS Import StartTime=
DSS Import EndDate=
DSS Import EndTime=
DSS Import GetInterval= 0 
DSS Import Interval=
DSS Import GetPeak= 0 
DSS Import FillOption= 0 
