Flow Title=Effective Multi-Profile 2019 (Re-Study)
Program Version=4.10
Number of Profiles= 4 
Profile Names=10YR,50YR,100YR,500YR
River Rch & RM=W167-01-00,W167-01-00_0082 ,17390.51
     930    1363    1569    2194
River Rch & RM=W167-01-00,W167-01-00_0082 ,16414.7 
     960    1414    1631    2285
River Rch & RM=W167-01-00,W167-01-00_0082 ,15474.32
     976    1442    1665    2336
River Rch & RM=W167-01-00,W167-01-00_0082 ,14964.42
    1005    1493    1728    2429
River Rch & RM=W167-01-00,W167-01-00_0082 ,14073.27
    1029    1533    1778    2503
River Rch & RM=W167-01-00,W167-01-00_0082 ,13381.9 
    1049    1569    1822    2568
River Rch & RM=W167-01-00,W167-01-00_0082 ,12784.52
    1078    1621    1886    2663
River Rch & RM=W167-01-00,W167-01-00_0082 ,11950.98
    1096    1651    1923    2719
River Rch & RM=W167-01-00,W167-01-00_0082 ,11476.9 
    1116    1688    1969    2787
River Rch & RM=W167-01-00,W167-01-00_0082 ,10907.41
    1137    1725    2015    2855
River Rch & RM=W167-01-00,W167-01-00_0082 ,10350.29
    1141    1731    2022    2867
River Rch & RM=W167-01-00,W167-01-00_0082 ,10255.28
    1178    1798    2106    2992
River Rch & RM=W167-01-00,W167-01-00_0082 ,9275.005
    1219    1872    2198    3129
Boundary for River Rch & Prof#=W167-01-00,W167-01-00_0082 , 1 
Up Type= 0 
Dn Type= 1 
Dn Known WS=97.6
Boundary for River Rch & Prof#=W167-01-00,W167-01-00_0082 , 2 
Up Type= 0 
Dn Type= 1 
Dn Known WS=99.9
Boundary for River Rch & Prof#=W167-01-00,W167-01-00_0082 , 3 
Up Type= 0 
Dn Type= 1 
Dn Known WS=100.8
Boundary for River Rch & Prof#=W167-01-00,W167-01-00_0082 , 4 
Up Type= 0 
Dn Type= 1 
Dn Known WS=102.4
Observed WS=W167-01-00      ,W167-01-00_0082 ,17390.51,0,107.88,109.35,110.11,111.32
Observed WS=W167-01-00      ,W167-01-00_0082 ,16414.7 ,0,107.45,108.94,109.76,110.91
Observed WS=W167-01-00      ,W167-01-00_0082 ,15474.32,0,107.27,108.76,109.58,110.69
Observed WS=W167-01-00      ,W167-01-00_0082 ,15373.11,0,107.26,108.74,109.56,110.67
Observed WS=W167-01-00      ,W167-01-00_0082 ,15311.33,0,107.15,108.47,109.17,110.37
Observed WS=W167-01-00      ,W167-01-00_0082 ,14964.42,0,107.11,108.41,109.12,110.31
Observed WS=W167-01-00      ,W167-01-00_0082 ,14073.27,0,106.96,108.23,108.94,110.11
Observed WS=W167-01-00      ,W167-01-00_0082 ,13286.92,0,106.85,108.1,108.81,110.02
Observed WS=W167-01-00      ,W167-01-00_0082 ,13185.06,0,106.68,107.87,108.57,109.75
Observed WS=W167-01-00      ,W167-01-00_0082 ,13067.48,0,106.52,107.62,108.17,109.75
Observed WS=W167-01-00      ,W167-01-00_0082 ,12784.52,0,106.43,107.5,108.04,109.63
Observed WS=W167-01-00      ,W167-01-00_0082 ,11950.98,0,106.14,107.1,107.61,109.22
Observed WS=W167-01-00      ,W167-01-00_0082 ,11872   ,0,106.05,106.94,107.41,108.94
Observed WS=W167-01-00      ,W167-01-00_0082 ,11797.71,0,105.92,106.57,106.87,107.61
Observed WS=W167-01-00      ,W167-01-00_0082 ,11476.9 ,0,105.83,106.4,106.64,107.3
Observed WS=W167-01-00      ,W167-01-00_0082 ,11096.04,0,105.73,106.23,106.42,106.94
Observed WS=W167-01-00      ,W167-01-00_0082 ,10663.71,0,105.68,106.17,106.35,106.9
Observed WS=W167-01-00      ,W167-01-00_0082 ,10350.29,0,105.47,106,106.19,106.77
Observed WS=W167-01-00      ,W167-01-00_0082 ,10324.79,0,105.46,105.92,106.11,106.7
Observed WS=W167-01-00      ,W167-01-00_0082 ,10255.28,0,105.13,105.67,105.89,106.53
Observed WS=W167-01-00      ,W167-01-00_0082 ,9275.005,0,103.53,104,104.22,104.29
Observed WS=W167-01-00      ,W167-01-00_0082 ,8242.248,0,101.02,101.17,101.22,102.4
DSS Import StartDate=
DSS Import StartTime=
DSS Import EndDate=
DSS Import EndTime=
DSS Import GetInterval= 0 
DSS Import Interval=
DSS Import GetPeak= 0 
DSS Import FillOption= 0 
