Flow Title=Effective Floodway 2019
Program Version=4.10
Number of Profiles= 2 
Profile Names=100YR,FW
River Rch & RM=W167-01-00,W167-01-00_0082 ,17390.51
    1569    1569
River Rch & RM=W167-01-00,W167-01-00_0082 ,16414.7 
    1631    1631
River Rch & RM=W167-01-00,W167-01-00_0082 ,15474.32
    1665    1665
River Rch & RM=W167-01-00,W167-01-00_0082 ,14964.42
    1728    1728
River Rch & RM=W167-01-00,W167-01-00_0082 ,14073.27
    1778    1778
River Rch & RM=W167-01-00,W167-01-00_0082 ,13381.9 
    1822    1822
River Rch & RM=W167-01-00,W167-01-00_0082 ,12784.52
    1886    1886
River Rch & RM=W167-01-00,W167-01-00_0082 ,11950.98
    1923    1923
River Rch & RM=W167-01-00,W167-01-00_0082 ,11476.9 
    1969    1969
River Rch & RM=W167-01-00,W167-01-00_0082 ,10907.41
    2015    2015
River Rch & RM=W167-01-00,W167-01-00_0082 ,10350.29
    2022    2022
River Rch & RM=W167-01-00,W167-01-00_0082 ,10255.28
    2106    2106
River Rch & RM=W167-01-00,W167-01-00_0082 ,9275.005
    2198    2198
Boundary for River Rch & Prof#=W167-01-00,W167-01-00_0082 , 1 
Up Type= 0 
Dn Type= 1 
Dn Known WS=100.8
Boundary for River Rch & Prof#=W167-01-00,W167-01-00_0082 , 2 
Up Type= 0 
Dn Type= 1 
Dn Known WS=101.8
Observed WS=W167-01-00      ,W167-01-00_0082 ,17390.51,0,107.88,109.35
Observed WS=W167-01-00      ,W167-01-00_0082 ,16414.7 ,0,107.45,108.94
Observed WS=W167-01-00      ,W167-01-00_0082 ,15474.32,0,107.27,108.76
Observed WS=W167-01-00      ,W167-01-00_0082 ,15373.11,0,107.26,108.74
Observed WS=W167-01-00      ,W167-01-00_0082 ,15311.33,0,107.15,108.47
Observed WS=W167-01-00      ,W167-01-00_0082 ,14964.42,0,107.11,108.41
Observed WS=W167-01-00      ,W167-01-00_0082 ,14073.27,0,106.96,108.23
Observed WS=W167-01-00      ,W167-01-00_0082 ,13286.92,0,106.85,108.1
Observed WS=W167-01-00      ,W167-01-00_0082 ,13185.06,0,106.68,107.87
Observed WS=W167-01-00      ,W167-01-00_0082 ,13067.48,0,106.52,107.62
Observed WS=W167-01-00      ,W167-01-00_0082 ,12784.52,0,106.43,107.5
Observed WS=W167-01-00      ,W167-01-00_0082 ,11950.98,0,106.14,107.1
Observed WS=W167-01-00      ,W167-01-00_0082 ,11872   ,0,106.05,106.94
Observed WS=W167-01-00      ,W167-01-00_0082 ,11797.71,0,105.92,106.57
Observed WS=W167-01-00      ,W167-01-00_0082 ,11476.9 ,0,105.83,106.4
Observed WS=W167-01-00      ,W167-01-00_0082 ,11096.04,0,105.73,106.23
Observed WS=W167-01-00      ,W167-01-00_0082 ,10663.71,0,105.68,106.17
Observed WS=W167-01-00      ,W167-01-00_0082 ,10350.29,0,105.47,106
Observed WS=W167-01-00      ,W167-01-00_0082 ,10324.79,0,105.46,105.92
Observed WS=W167-01-00      ,W167-01-00_0082 ,10255.28,0,105.13,105.67
Observed WS=W167-01-00      ,W167-01-00_0082 ,9275.005,0,103.53,104
Observed WS=W167-01-00      ,W167-01-00_0082 ,8242.248,0,101.02,101.17
DSS Import StartDate=
DSS Import StartTime=
DSS Import EndDate=
DSS Import EndTime=
DSS Import GetInterval= 0 
DSS Import Interval=
DSS Import GetPeak= 0 
DSS Import FillOption= 0 
