Flow Title=Effective Multi-Profile 2019
Program Version=4.10
Number of Profiles= 4 
Profile Names=10YR,50YR,100YR,500YR
River Rch & RM=U101-00-00,U101-00-00_0193 ,100145.7
     339     557     677    1030
River Rch & RM=U101-00-00,U101-00-00_0193 ,99596.47
     349     575     698    1064
River Rch & RM=U101-00-00,U101-00-00_0193 ,99118.3 
     357     588     714    1089
River Rch & RM=U101-00-00,U101-00-00_0193 ,98764.82
     383     630     764    1170
River Rch & RM=U101-00-00,U101-00-00_0193 ,97700.91
     396     651     791    1212
River Rch & RM=U101-00-00,U101-00-00_0193 ,97174.13
     413     679     824    1265
River Rch & RM=U101-00-00,U101-00-00_0193 ,96527.58
     432     710     862    1326
River Rch & RM=U101-00-00,U101-00-00_0193 ,95830.44
     438     721     875    1347
River Rch & RM=U101-00-00,U101-00-00_0193 ,95594.33
     455     749     909    1401
River Rch & RM=U101-00-00,U101-00-00_0193 ,95003.93
     479     788     957    1478
River Rch & RM=U101-00-00,U101-00-00_0193 ,94207.76
     508     836    1016    1572
River Rch & RM=U101-00-00,U101-00-00_0193 ,93287.06
     540     888    1079    1674
River Rch & RM=U101-00-00,U101-00-00_0193 ,92350.25
     555     912    1108    1720
River Rch & RM=U101-00-00,U101-00-00_0193 ,91938.92
     573     943    1145    1782
River Rch & RM=U101-00-00,U101-00-00_0193 ,91417.91
     603     992    1204    1877
River Rch & RM=U101-00-00,U101-00-00_0193 ,90641.11
     635    1044    1268    1980
River Rch & RM=U101-00-00,U101-00-00_0193 ,89839.63
     653    1074    1304    2040
River Rch & RM=U101-00-00,U101-00-00_0193 ,89398.27
     682    1122    1362    2134
River Rch & RM=U101-00-00,U101-00-00_0193 ,88725.2 
     734    1207    1466    2303
River Rch & RM=U101-00-00,U101-00-00_0193 ,87583.91
     764    1256    1525    2400
River Rch & RM=U101-00-00,U101-00-00_0193 ,86968.8 
     780    1282    1557    2452
River Rch & RM=U101-00-00,U101-00-00_0193 ,86647.11
     826    1359    1650    2605
River Rch & RM=U101-00-00,U101-00-00_0193 ,85743.88
     881    1450    1761    2786
River Rch & RM=U101-00-00,U101-00-00_0193 ,84739.7 
     948    1559    1893    3004
River Rch & RM=U101-00-00,U101-00-00_0193 ,83615.02
     986    1622    1969    3131
River Rch & RM=U101-00-00,U101-00-00_0193 ,82999.61
    1051    1729    2100    3347
River Rch & RM=U101-00-00,U101-00-00_0193 ,82000.36
    1108    1822    2213    3534
River Rch & RM=U101-00-00,U101-00-00_0193 ,81188.76
    1227    2015    2445    3843
River Rch & RM=U101-00-00,U101-00-00_0193 ,81071.45
    1555    2543    3077    4662
River Rch & RM=U101-00-00,U101-00-00_0193 ,80800.84
    1608    2634    3193    4903
River Rch & RM=U101-00-00,U101-00-00_0193 ,78183.56
    1671    2744    3332    5196
River Rch & RM=U101-00-00,U101-00-00_0193 ,75178.59
    1730    2847    3464    5478
River Rch & RM=U101-00-00,U101-00-00_0193 ,72447.08
    1771    2919    3556    5677
River Rch & RM=U101-00-00,U101-00-00_0193 ,70595.77
    1846    3049    3722    6041
River Rch & RM=U101-00-00,U101-00-00_0193 ,67376.78
    1898    3139    3839    6300
River Rch & RM=U101-00-00,U101-00-00_0193 ,65202.7 
    1930    3197    3912    6464
River Rch & RM=U101-00-00,U101-00-00_0193 ,63870.36
    2034    3365    4111    6733
River Rch & RM=U101-00-00,U101-00-00_0193 ,62112.98
    2099    3470    4235    6899
River Rch & RM=U101-00-00,U101-00-00_0193 ,61062.95
    2193    3624    4417    7141
River Rch & RM=U101-00-00,U101-00-00_0193 ,59580.12
    2302    3801    4625    7415
River Rch & RM=U101-00-00,U101-00-00_0193 ,57954.2 
    2397    3956    4807    7653
River Rch & RM=U101-00-00,U101-00-00_0193 ,56593.08
    2460    4059    4927    7810
River Rch & RM=U101-00-00,U101-00-00_0193 ,55716.98
    2551    4206    5100    8034
River Rch & RM=U101-00-00,U101-00-00_0193 ,54496.94
    2658    4379    5303    8295
River Rch & RM=U101-00-00,U101-00-00_0193 ,53121.04
    2839    4672    5645    8731
River Rch & RM=U101-00-00,U101-00-00_0193 ,50911.78
    3237    5211    6267    9693
River Rch & RM=U101-00-00,U101-00-00_0193 ,50735.53
    3371    5405    6453    9916
River Rch & RM=U101-00-00,U101-00-00_0193 ,47176.75
    3382    5421    6468    9934
River Rch & RM=U101-00-00,U101-00-00_0193 ,46896.98
    3472    5590    6669   10195
River Rch & RM=U101-00-00,U101-00-00_0193 ,46603.5 
    3709    5923    7056   10650
River Rch & RM=U101-00-00,U101-00-00_0193 ,43550   
    3945    6252    7439   11096
River Rch & RM=U101-00-00,U101-00-00_0193 ,40683.68
    4219    6630    7877   11600
River Rch & RM=U101-00-00,U101-00-00_0193 ,37581.29
    4483    6992    8296   12076
River Rch & RM=U101-00-00,U101-00-00_0193 ,34769.88
    5017    7814    9153   13120
River Rch & RM=U101-00-00,U101-00-00_0193 ,34393.11
    4938    7848    9241   13382
River Rch & RM=U101-00-00,U101-00-00_0193 ,31447.05
    4898    7867    9287   13522
River Rch & RM=U101-00-00,U101-00-00_0193 ,29898.14
    4815    7905    9383   13816
River Rch & RM=U101-00-00,U101-00-00_0193 ,26701.34
    4762    7930    9445   14008
River Rch & RM=U101-00-00,U101-00-00_0193 ,24646.42
    4628    7994    9609   14520
Boundary for River Rch & Prof#=U101-00-00,U101-00-00_0193 , 1 
Up Type= 0 
Dn Type= 1 
Dn Known WS=97.6
Boundary for River Rch & Prof#=U101-00-00,U101-00-00_0193 , 2 
Up Type= 0 
Dn Type= 1 
Dn Known WS=99.9
Boundary for River Rch & Prof#=U101-00-00,U101-00-00_0193 , 3 
Up Type= 0 
Dn Type= 1 
Dn Known WS=100.8
Boundary for River Rch & Prof#=U101-00-00,U101-00-00_0193 , 4 
Up Type= 0 
Dn Type= 1 
Dn Known WS=102.4
Observed WS=U101-00-00      ,U101-00-00_0193 ,100145.7,0,169.5,169.99,170.15,171.21
Observed WS=U101-00-00      ,U101-00-00_0193 ,99757.7 ,0,169.3,169.83,170.01,171.1
Observed WS=U101-00-00      ,U101-00-00_0193 ,99692.97,0,169.27,169.8,169.99,171.08
Observed WS=U101-00-00      ,U101-00-00_0193 ,99596.47,0,169.19,169.74,169.93,171.01
Observed WS=U101-00-00      ,U101-00-00_0193 ,99553.45,0,169.15,169.71,169.9,170.98
Observed WS=U101-00-00      ,U101-00-00_0193 ,99118.3 ,0,168.79,169.42,169.62,170.67
Observed WS=U101-00-00      ,U101-00-00_0193 ,99068.97,0,168.65,169.25,169.45,170.48
Observed WS=U101-00-00      ,U101-00-00_0193 ,98764.82,0,167.8,168.22,168.42,169.34
Observed WS=U101-00-00      ,U101-00-00_0193 ,97700.91,0,166.51,166.84,166.94,167.51
Observed WS=U101-00-00      ,U101-00-00_0193 ,97686.69,0,166.49,166.81,166.91,167.46
Observed WS=U101-00-00      ,U101-00-00_0193 ,97642.79,0,166.48,166.78,166.9,167.46
Observed WS=U101-00-00      ,U101-00-00_0193 ,97503.91,0,166.47,166.76,166.88,167.42
Observed WS=U101-00-00      ,U101-00-00_0193 ,97192.83,0,166.44,166.72,166.83,167.34
Observed WS=U101-00-00      ,U101-00-00_0193 ,97174.13,0,166.44,166.72,166.83,167.33
Observed WS=U101-00-00      ,U101-00-00_0193 ,97085.78,0,166.42,166.7,166.81,167.31
Observed WS=U101-00-00      ,U101-00-00_0193 ,96591.66,0,166.35,166.59,166.69,167.15
Observed WS=U101-00-00      ,U101-00-00_0193 ,96527.58,0,166.34,166.58,166.68,167.13
Observed WS=U101-00-00      ,U101-00-00_0193 ,96475.77,0,166.31,166.55,166.65,167.1
Observed WS=U101-00-00      ,U101-00-00_0193 ,96297.05,0,166.19,166.45,166.55,167
Observed WS=U101-00-00      ,U101-00-00_0193 ,96254.03,0,166.16,166.43,166.53,166.97
Observed WS=U101-00-00      ,U101-00-00_0193 ,96040.27,0,166.02,166.31,166.41,166.85
Observed WS=U101-00-00      ,U101-00-00_0193 ,95995.92,0,166,166.29,166.39,166.82
Observed WS=U101-00-00      ,U101-00-00_0193 ,95871.22,0,165.96,166.22,166.32,166.75
Observed WS=U101-00-00      ,U101-00-00_0193 ,95830.44,0,165.95,166.2,166.29,166.72
Observed WS=U101-00-00      ,U101-00-00_0193 ,95752.84,0,165.92,166.16,166.25,166.68
Observed WS=U101-00-00      ,U101-00-00_0193 ,95657.73,0,165.89,166.11,166.2,166.62
Observed WS=U101-00-00      ,U101-00-00_0193 ,95644.5 ,0,165.86,166.08,166.17,166.58
Observed WS=U101-00-00      ,U101-00-00_0193 ,95594.33,0,165.86,166.08,166.17,166.58
Observed WS=U101-00-00      ,U101-00-00_0193 ,95524.92,0,165.85,166.06,166.15,166.56
Observed WS=U101-00-00      ,U101-00-00_0193 ,95322.02,0,165.73,165.94,166.02,166.42
Observed WS=U101-00-00      ,U101-00-00_0193 ,95282.95,0,165.71,165.92,166,166.39
Observed WS=U101-00-00      ,U101-00-00_0193 ,95173.02,0,165.65,165.85,165.93,166.32
Observed WS=U101-00-00      ,U101-00-00_0193 ,95119.43,0,165.59,165.8,165.88,166.27
Observed WS=U101-00-00      ,U101-00-00_0193 ,95097.17,0,165.56,165.77,165.86,166.25
Observed WS=U101-00-00      ,U101-00-00_0193 ,95061.74,0,165.52,165.74,165.82,166.22
Observed WS=U101-00-00      ,U101-00-00_0193 ,95003.93,0,165.46,165.68,165.77,166.17
Observed WS=U101-00-00      ,U101-00-00_0193 ,94207.76,0,164.55,164.86,165.01,165.48
Observed WS=U101-00-00      ,U101-00-00_0193 ,93287.06,0,163.65,163.89,163.96,164.21
Observed WS=U101-00-00      ,U101-00-00_0193 ,92350.25,0,161.34,161.69,161.83,162.33
Observed WS=U101-00-00      ,U101-00-00_0193 ,92305.42,0,161.46,161.77,161.86,162.33
Observed WS=U101-00-00      ,U101-00-00_0193 ,92256.93,0,161.41,161.72,161.82,162.29
Observed WS=U101-00-00      ,U101-00-00_0193 ,92245.8 ,0,161.4,161.71,161.81,162.28
Observed WS=U101-00-00      ,U101-00-00_0193 ,92205.4 ,0,161.36,161.67,161.78,162.25
Observed WS=U101-00-00      ,U101-00-00_0193 ,91938.92,0,161.11,161.42,161.56,162.04
Observed WS=U101-00-00      ,U101-00-00_0193 ,91578.98,0,160.9,161.2,161.33,161.81
Observed WS=U101-00-00      ,U101-00-00_0193 ,91508.91,0,160.86,161.16,161.29,161.76
Observed WS=U101-00-00      ,U101-00-00_0193 ,91417.91,0,160.81,161.1,161.23,161.7
Observed WS=U101-00-00      ,U101-00-00_0193 ,90641.11,0,160.37,160.65,160.78,161.23
Observed WS=U101-00-00      ,U101-00-00_0193 ,90590.89,0,160.33,160.61,160.74,161.18
Observed WS=U101-00-00      ,U101-00-00_0193 ,89839.63,0,159.71,159.99,160.09,160.42
Observed WS=U101-00-00      ,U101-00-00_0193 ,89791.85,0,159.67,159.95,160.05,160.37
Observed WS=U101-00-00      ,U101-00-00_0193 ,89744.73,0,159.57,159.8,159.89,160.24
Observed WS=U101-00-00      ,U101-00-00_0193 ,89694.23,0,159.47,159.63,159.71,160.11
Observed WS=U101-00-00      ,U101-00-00_0193 ,89543.23,0,159.17,159.45,159.57,159.96
Observed WS=U101-00-00      ,U101-00-00_0193 ,89492.98,0,159.12,159.39,159.51,159.9
Observed WS=U101-00-00      ,U101-00-00_0193 ,89441.95,0,159.06,159.33,159.45,159.84
Observed WS=U101-00-00      ,U101-00-00_0193 ,89398.27,0,159.02,159.28,159.4,159.79
Observed WS=U101-00-00      ,U101-00-00_0193 ,88725.2 ,0,158.27,158.52,158.64,159.01
Observed WS=U101-00-00      ,U101-00-00_0193 ,87583.91,0,157.45,157.73,157.84,158.18
Observed WS=U101-00-00      ,U101-00-00_0193 ,87239.7 ,0,157.38,157.64,157.75,158.08
Observed WS=U101-00-00      ,U101-00-00_0193 ,86968.8 ,0,157.3,157.55,157.66,158
Observed WS=U101-00-00      ,U101-00-00_0193 ,86895.63,0,157.23,157.49,157.6,157.94
Observed WS=U101-00-00      ,U101-00-00_0193 ,86647.11,0,157.12,157.37,157.48,157.81
Observed WS=U101-00-00      ,U101-00-00_0193 ,85743.88,0,156.68,156.99,157.12,157.48
Observed WS=U101-00-00      ,U101-00-00_0193 ,84739.7 ,0,156.17,156.49,156.63,157.03
Observed WS=U101-00-00      ,U101-00-00_0193 ,83615.02,0,155.42,155.85,156.03,156.47
Observed WS=U101-00-00      ,U101-00-00_0193 ,83574.32,0,155.43,155.85,156.03,156.47
Observed WS=U101-00-00      ,U101-00-00_0193 ,83514.11,0,155.39,155.81,155.99,156.43
Observed WS=U101-00-00      ,U101-00-00_0193 ,82999.61,0,155.05,155.56,155.76,156.2
Observed WS=U101-00-00      ,U101-00-00_0193 ,82000.36,0,154.2,154.8,155.07,155.42
Observed WS=U101-00-00      ,U101-00-00_0193 ,81188.76,0,153.52,154.29,154.72,154.84
Observed WS=U101-00-00      ,U101-00-00_0193 ,81071.45,0,153.21,154.25,154.7,154.79
Observed WS=U101-00-00      ,U101-00-00_0193 ,80941.05,0,153.01,153.44,153.62,154.07
Observed WS=U101-00-00      ,U101-00-00_0193 ,80800.84,0,152.94,153.33,153.51,153.95
Observed WS=U101-00-00      ,U101-00-00_0193 ,79906.94,0,152.47,152.83,153,153.43
Observed WS=U101-00-00      ,U101-00-00_0193 ,79155.22,0,151.8,152.19,152.37,152.85
Observed WS=U101-00-00      ,U101-00-00_0193 ,78183.56,0,150.92,151.4,151.6,152.04
Observed WS=U101-00-00      ,U101-00-00_0193 ,77207.09,0,149.74,150.16,150.34,150.77
Observed WS=U101-00-00      ,U101-00-00_0193 ,76083.47,0,148.88,149.31,149.5,149.99
Observed WS=U101-00-00      ,U101-00-00_0193 ,75178.59,0,147.87,148.45,148.68,149.25
Observed WS=U101-00-00      ,U101-00-00_0193 ,74013.76,0,147.29,147.71,147.9,148.42
Observed WS=U101-00-00      ,U101-00-00_0193 ,73983.55,0,147.29,147.7,147.9,148.41
Observed WS=U101-00-00      ,U101-00-00_0193 ,73928.7 ,0,147.28,147.7,147.9,148.41
Observed WS=U101-00-00      ,U101-00-00_0193 ,73904.55,0,147.19,147.62,147.83,148.36
Observed WS=U101-00-00      ,U101-00-00_0193 ,72447.08,0,146.03,146.68,146.88,147.37
Observed WS=U101-00-00      ,U101-00-00_0193 ,71547.45,0,145.46,146.07,146.29,146.78
Observed WS=U101-00-00      ,U101-00-00_0193 ,70595.77,0,144.65,145.2,145.42,145.95
Observed WS=U101-00-00      ,U101-00-00_0193 ,69231.29,0,143.91,144.44,144.67,145.19
Observed WS=U101-00-00      ,U101-00-00_0193 ,68228.34,0,143.06,143.69,143.93,144.46
Observed WS=U101-00-00      ,U101-00-00_0193 ,67376.78,0,142.58,143.09,143.3,143.8
Observed WS=U101-00-00      ,U101-00-00_0193 ,67342.94,0,142.57,143.07,143.29,143.78
Observed WS=U101-00-00      ,U101-00-00_0193 ,67186.98,0,142.36,142.95,143.18,143.69
Observed WS=U101-00-00      ,U101-00-00_0193 ,66963   ,0,142.09,142.71,142.95,143.46
Observed WS=U101-00-00      ,U101-00-00_0193 ,65976.19,0,141.09,141.83,142.14,142.82
Observed WS=U101-00-00      ,U101-00-00_0193 ,65202.7 ,0,140.55,141.24,141.54,142.27
Observed WS=U101-00-00      ,U101-00-00_0193 ,64431.81,0,139.63,140.41,140.74,141.5
Observed WS=U101-00-00      ,U101-00-00_0193 ,64170.88,0,139.56,140.32,140.65,141.42
Observed WS=U101-00-00      ,U101-00-00_0193 ,64099.09,0,139.54,140.3,140.62,141.4
Observed WS=U101-00-00      ,U101-00-00_0193 ,64044.47,0,139.44,140.23,140.56,141.33
Observed WS=U101-00-00      ,U101-00-00_0193 ,63870.36,0,139.35,140.15,140.47,141.21
Observed WS=U101-00-00      ,U101-00-00_0193 ,63281.11,0,138.74,139.62,139.94,140.7
Observed WS=U101-00-00      ,U101-00-00_0193 ,62473.67,0,138.44,139.32,139.64,140.39
Observed WS=U101-00-00      ,U101-00-00_0193 ,62112.98,0,138.31,139.19,139.5,140.25
Observed WS=U101-00-00      ,U101-00-00_0193 ,61300.01,0,138.09,138.99,139.29,140.05
Observed WS=U101-00-00      ,U101-00-00_0193 ,61062.95,0,138.03,138.93,139.23,139.99
Observed WS=U101-00-00      ,U101-00-00_0193 ,60100.05,0,137.47,138.5,138.8,139.58
Observed WS=U101-00-00      ,U101-00-00_0193 ,60076.41,0,137.48,138.48,138.77,139.46
Observed WS=U101-00-00      ,U101-00-00_0193 ,60012.43,0,137.47,138.47,138.77,139.48
Observed WS=U101-00-00      ,U101-00-00_0193 ,59985.94,0,137.32,138.41,138.73,139.48
Observed WS=U101-00-00      ,U101-00-00_0193 ,59580.12,0,136.42,137.85,138.28,139.07
Observed WS=U101-00-00      ,U101-00-00_0193 ,58910.02,0,135.3,136.86,137.29,138.25
Observed WS=U101-00-00      ,U101-00-00_0193 ,58579.48,0,134.75,136.37,136.8,137.84
Observed WS=U101-00-00      ,U101-00-00_0193 ,57954.2 ,0,133.48,135.73,136.31,137.4
Observed WS=U101-00-00      ,U101-00-00_0193 ,57379.89,0,132.54,134.93,135.74,137.02
Observed WS=U101-00-00      ,U101-00-00_0193 ,56593.08,0,131.25,133.83,134.96,136.49
Observed WS=U101-00-00      ,U101-00-00_0193 ,55716.98,0,129.84,132.74,133.92,135.57
Observed WS=U101-00-00      ,U101-00-00_0193 ,54496.94,0,127.82,130.76,131.88,133.98
Observed WS=U101-00-00      ,U101-00-00_0193 ,53801.16,0,127.04,129.82,131.08,133.48
Observed WS=U101-00-00      ,U101-00-00_0193 ,53721.16,0,126.96,129.71,130.99,133.42
Observed WS=U101-00-00      ,U101-00-00_0193 ,53611.05,0,126.83,129.56,130.86,133.34
Observed WS=U101-00-00      ,U101-00-00_0193 ,53572.32,0,126.79,129.51,130.82,133.31
Observed WS=U101-00-00      ,U101-00-00_0193 ,53530.98,0,126.34,128.83,129.91,133.12
Observed WS=U101-00-00      ,U101-00-00_0193 ,53423.02,0,125.91,128.22,129.21,131.54
Observed WS=U101-00-00      ,U101-00-00_0193 ,53419.87,0,125.92,128.27,129.29,131.61
Observed WS=U101-00-00      ,U101-00-00_0193 ,53409.96,0,125.96,128.44,129.54,131.84
Observed WS=U101-00-00      ,U101-00-00_0193 ,53339.23,0,125.87,128.36,129.45,131.74
Observed WS=U101-00-00      ,U101-00-00_0193 ,53226.12,0,125.73,128.23,129.32,131.57
Observed WS=U101-00-00      ,U101-00-00_0193 ,53121.04,0,125.6,128.11,129.19,131.42
Observed WS=U101-00-00      ,U101-00-00_0193 ,52062.53,0,124.54,127.22,128.3,130.38
Observed WS=U101-00-00      ,U101-00-00_0193 ,51513.27,0,124.1,126.82,127.89,129.92
Observed WS=U101-00-00      ,U101-00-00_0193 ,50911.78,0,123.62,126.39,127.45,129.43
Observed WS=U101-00-00      ,U101-00-00_0193 ,50735.53,0,123.48,126.26,127.32,129.28
Observed WS=U101-00-00      ,U101-00-00_0193 ,50632.55,0,123.41,126.2,127.25,129.19
Observed WS=U101-00-00      ,U101-00-00_0193 ,49800.39,0,122.87,125.67,126.7,128.5
Observed WS=U101-00-00      ,U101-00-00_0193 ,49123.86,0,122.68,125.46,126.47,128.18
Observed WS=U101-00-00      ,U101-00-00_0193 ,48890.5 ,0,122.6,125.37,126.38,128.07
Observed WS=U101-00-00      ,U101-00-00_0193 ,48759.05,0,122.49,125.28,126.28,127.97
Observed WS=U101-00-00      ,U101-00-00_0193 ,48099.26,0,122.15,124.91,125.92,127.65
Observed WS=U101-00-00      ,U101-00-00_0193 ,47700.77,0,121.89,124.65,125.62,127.26
Observed WS=U101-00-00      ,U101-00-00_0193 ,47546.16,0,121.79,124.55,125.5,127.11
Observed WS=U101-00-00      ,U101-00-00_0193 ,47176.75,0,121.54,124.3,125.23,126.74
Observed WS=U101-00-00      ,U101-00-00_0193 ,46896.98,0,121.36,124.12,125.03,126.51
Observed WS=U101-00-00      ,U101-00-00_0193 ,46603.5 ,0,121.18,123.94,124.81,126.26
Observed WS=U101-00-00      ,U101-00-00_0193 ,46472.27,0,121.09,123.85,124.71,126.16
Observed WS=U101-00-00      ,U101-00-00_0193 ,46335.09,0,120.99,123.33,124.22,126.04
Observed WS=U101-00-00      ,U101-00-00_0193 ,45896.04,0,120.63,122.92,123.82,125.77
Observed WS=U101-00-00      ,U101-00-00_0193 ,45743.27,0,120.5,122.78,123.68,125.68
Observed WS=U101-00-00      ,U101-00-00_0193 ,45377.89,0,120.29,122.54,123.42,125.42
Observed WS=U101-00-00      ,U101-00-00_0193 ,44351.62,0,119.69,121.86,122.7,124.7
Observed WS=U101-00-00      ,U101-00-00_0193 ,43550   ,0,119.2,121.28,122.06,123.97
Observed WS=U101-00-00      ,U101-00-00_0193 ,42980.1 ,0,118.94,121.02,121.79,123.78
Observed WS=U101-00-00      ,U101-00-00_0193 ,42786.2 ,0,118.82,120.87,121.61,123.53
Observed WS=U101-00-00      ,U101-00-00_0193 ,42713.65,0,118.68,120.62,121.21,122.52
Observed WS=U101-00-00      ,U101-00-00_0193 ,42135.18,0,118.35,120.24,120.78,121.93
Observed WS=U101-00-00      ,U101-00-00_0193 ,41930.96,0,118.18,120.09,120.64,121.82
Observed WS=U101-00-00      ,U101-00-00_0193 ,40683.68,0,117.2,119.05,119.65,120.98
Observed WS=U101-00-00      ,U101-00-00_0193 ,40002.11,0,116.63,118.56,119.19,120.6
Observed WS=U101-00-00      ,U101-00-00_0193 ,39070.47,0,115.57,117.64,118.32,120.03
Observed WS=U101-00-00      ,U101-00-00_0193 ,38548.08,0,115.08,117.15,117.84,119.69
Observed WS=U101-00-00      ,U101-00-00_0193 ,38347.6 ,0,114.91,116.9,117.56,119.46
Observed WS=U101-00-00      ,U101-00-00_0193 ,38316.57,0,114.77,116.83,117.54,119.26
Observed WS=U101-00-00      ,U101-00-00_0193 ,37581.29,0,114.58,116.59,117.34,119.07
Observed WS=U101-00-00      ,U101-00-00_0193 ,37364.75,0,114.51,116.58,117.31,119.05
Observed WS=U101-00-00      ,U101-00-00_0193 ,37219.4 ,0,114.15,116.26,117.01,118.7
Observed WS=U101-00-00      ,U101-00-00_0193 ,36591.11,0,113.51,115.56,116.3,117.9
Observed WS=U101-00-00      ,U101-00-00_0193 ,35792.36,0,112.86,114.87,115.6,117.13
Observed WS=U101-00-00      ,U101-00-00_0193 ,34769.88,0,111.94,113.72,114.39,115.96
Observed WS=U101-00-00      ,U101-00-00_0193 ,34393.11,0,111.6,113.29,113.95,115.53
Observed WS=U101-00-00      ,U101-00-00_0193 ,33420.95,0,110.38,111.45,111.81,112.57
Observed WS=U101-00-00      ,U101-00-00_0193 ,32152.3 ,0,109.87,110.93,111.34,112.22
Observed WS=U101-00-00      ,U101-00-00_0193 ,31747.41,0,109.69,110.74,111.16,112.04
Observed WS=U101-00-00      ,U101-00-00_0193 ,31447.05,0,109.58,110.63,111.04,111.9
Observed WS=U101-00-00      ,U101-00-00_0193 ,31343.59,0,109.46,110.41,110.85,111.72
Observed WS=U101-00-00      ,U101-00-00_0193 ,31253.61,0,109.39,110.34,110.79,111.66
Observed WS=U101-00-00      ,U101-00-00_0193 ,31076.4 ,0,109.26,110.19,110.67,111.56
Observed WS=U101-00-00      ,U101-00-00_0193 ,30385.92,0,108.74,109.63,110.21,111.13
Observed WS=U101-00-00      ,U101-00-00_0193 ,29947.52,0,108.55,109.43,110.04,111
Observed WS=U101-00-00      ,U101-00-00_0193 ,29898.14,0,108.52,109.4,110.02,110.99
Observed WS=U101-00-00      ,U101-00-00_0193 ,29812.82,0,108.33,109.28,109.97,110.95
Observed WS=U101-00-00      ,U101-00-00_0193 ,29699.63,0,108.27,109.22,109.93,110.91
Observed WS=U101-00-00      ,U101-00-00_0193 ,29249.24,0,108.05,109.03,109.79,110.79
Observed WS=U101-00-00      ,U101-00-00_0193 ,28913.98,0,107.91,108.91,109.71,110.71
Observed WS=U101-00-00      ,U101-00-00_0193 ,27746.61,0,107.46,108.47,109.41,110.4
Observed WS=U101-00-00      ,U101-00-00_0193 ,26767.03,0,107.29,108.28,109.28,110.26
Observed WS=U101-00-00      ,U101-00-00_0193 ,26701.34,0,107.28,108.27,109.27,110.25
Observed WS=U101-00-00      ,U101-00-00_0193 ,26611.14,0,107.27,108.25,109.26,110.24
Observed WS=U101-00-00      ,U101-00-00_0193 ,26316.96,0,107.23,108.2,109.22,110.19
Observed WS=U101-00-00      ,U101-00-00_0193 ,25395.09,0,106.98,107.91,109.04,110.02
Observed WS=U101-00-00      ,U101-00-00_0193 ,24933.98,0,106.65,107.54,108.86,109.85
Observed WS=U101-00-00      ,U101-00-00_0193 ,24646.42,0,106.31,107.32,108.73,109.69
Observed WS=U101-00-00      ,U101-00-00_0193 ,24472.12,0,106.09,107.26,107.73,108.84
Observed WS=U101-00-00      ,U101-00-00_0193 ,24324.98,0,105.94,107.13,107.6,108.7
Observed WS=U101-00-00      ,U101-00-00_0193 ,23269.93,0,104.88,106.22,106.65,107.69
Observed WS=U101-00-00      ,U101-00-00_0193 ,22132.32,0,104.23,105.52,105.93,106.86
Observed WS=U101-00-00      ,U101-00-00_0193 ,21398.91,0,103.53,104.74,105.11,105.94
Observed WS=U101-00-00      ,U101-00-00_0193 ,20720.25,0,102.64,103.75,104.01,104.7
Observed WS=U101-00-00      ,U101-00-00_0193 ,19300.97,0,99.48,100.21,100.8,102.4
DSS Import StartDate=
DSS Import StartTime=
DSS Import EndDate=
DSS Import EndTime=
DSS Import GetInterval= 0 
DSS Import Interval=
DSS Import GetPeak= 0 
DSS Import FillOption= 0 
