Flow Title=Effective Floodway 2019
Program Version=4.10
Number of Profiles= 2 
Profile Names=100YR,FW
River Rch & RM=U101-00-00,U101-00-00_0193 ,100145.7
     677     677
River Rch & RM=U101-00-00,U101-00-00_0193 ,99596.47
     698     698
River Rch & RM=U101-00-00,U101-00-00_0193 ,99118.3 
     714     714
River Rch & RM=U101-00-00,U101-00-00_0193 ,98764.82
     764     764
River Rch & RM=U101-00-00,U101-00-00_0193 ,97700.91
     791     791
River Rch & RM=U101-00-00,U101-00-00_0193 ,97174.13
     824     824
River Rch & RM=U101-00-00,U101-00-00_0193 ,96527.58
     862     862
River Rch & RM=U101-00-00,U101-00-00_0193 ,95830.44
     875     875
River Rch & RM=U101-00-00,U101-00-00_0193 ,95594.33
     909     909
River Rch & RM=U101-00-00,U101-00-00_0193 ,95003.93
     957     957
River Rch & RM=U101-00-00,U101-00-00_0193 ,94207.76
    1016    1016
River Rch & RM=U101-00-00,U101-00-00_0193 ,93287.06
    1079    1079
River Rch & RM=U101-00-00,U101-00-00_0193 ,92350.25
    1108    1108
River Rch & RM=U101-00-00,U101-00-00_0193 ,91938.92
    1145    1145
River Rch & RM=U101-00-00,U101-00-00_0193 ,91417.91
    1204    1204
River Rch & RM=U101-00-00,U101-00-00_0193 ,90641.11
    1268    1268
River Rch & RM=U101-00-00,U101-00-00_0193 ,89839.63
    1304    1304
River Rch & RM=U101-00-00,U101-00-00_0193 ,89398.27
    1362    1362
River Rch & RM=U101-00-00,U101-00-00_0193 ,88725.2 
    1466    1466
River Rch & RM=U101-00-00,U101-00-00_0193 ,87583.91
    1525    1525
River Rch & RM=U101-00-00,U101-00-00_0193 ,86968.8 
    1557    1557
River Rch & RM=U101-00-00,U101-00-00_0193 ,86647.11
    1650    1650
River Rch & RM=U101-00-00,U101-00-00_0193 ,85743.88
    1761    1761
River Rch & RM=U101-00-00,U101-00-00_0193 ,84739.7 
    1893    1893
River Rch & RM=U101-00-00,U101-00-00_0193 ,83615.02
    1969    1969
River Rch & RM=U101-00-00,U101-00-00_0193 ,82999.61
    2100    2100
River Rch & RM=U101-00-00,U101-00-00_0193 ,82000.36
    2213    2213
River Rch & RM=U101-00-00,U101-00-00_0193 ,81188.76
    2445    2445
River Rch & RM=U101-00-00,U101-00-00_0193 ,81071.45
    3077    3077
River Rch & RM=U101-00-00,U101-00-00_0193 ,80800.84
    3193    3193
River Rch & RM=U101-00-00,U101-00-00_0193 ,78183.56
    3332    3332
River Rch & RM=U101-00-00,U101-00-00_0193 ,75178.59
    3464    3464
River Rch & RM=U101-00-00,U101-00-00_0193 ,72447.08
    3556    3556
River Rch & RM=U101-00-00,U101-00-00_0193 ,70595.77
    3722    3722
River Rch & RM=U101-00-00,U101-00-00_0193 ,67376.78
    3839    3839
River Rch & RM=U101-00-00,U101-00-00_0193 ,65202.7 
    3912    3912
River Rch & RM=U101-00-00,U101-00-00_0193 ,63870.36
    4111    4111
River Rch & RM=U101-00-00,U101-00-00_0193 ,62112.98
    4235    4235
River Rch & RM=U101-00-00,U101-00-00_0193 ,61062.95
    4417    4417
River Rch & RM=U101-00-00,U101-00-00_0193 ,59580.12
    4625    4625
River Rch & RM=U101-00-00,U101-00-00_0193 ,57954.2 
    4807    4807
River Rch & RM=U101-00-00,U101-00-00_0193 ,56593.08
    4927    4927
River Rch & RM=U101-00-00,U101-00-00_0193 ,55716.98
    5100    5100
River Rch & RM=U101-00-00,U101-00-00_0193 ,54496.94
    5303    5303
River Rch & RM=U101-00-00,U101-00-00_0193 ,53121.04
    5645    5645
River Rch & RM=U101-00-00,U101-00-00_0193 ,50911.78
    6267    6267
River Rch & RM=U101-00-00,U101-00-00_0193 ,50735.53
    6453    6453
River Rch & RM=U101-00-00,U101-00-00_0193 ,47176.75
    6468    6468
River Rch & RM=U101-00-00,U101-00-00_0193 ,46896.98
    6669    6669
River Rch & RM=U101-00-00,U101-00-00_0193 ,46603.5 
    7056    7056
River Rch & RM=U101-00-00,U101-00-00_0193 ,43550   
    7439    7439
River Rch & RM=U101-00-00,U101-00-00_0193 ,40683.68
    7877    7877
River Rch & RM=U101-00-00,U101-00-00_0193 ,37581.29
    8296    8296
River Rch & RM=U101-00-00,U101-00-00_0193 ,34769.88
    9153    9153
River Rch & RM=U101-00-00,U101-00-00_0193 ,34393.11
    9241    9241
River Rch & RM=U101-00-00,U101-00-00_0193 ,31447.05
    9287    9287
River Rch & RM=U101-00-00,U101-00-00_0193 ,29898.14
    9383    9383
River Rch & RM=U101-00-00,U101-00-00_0193 ,26701.34
    9445    9445
River Rch & RM=U101-00-00,U101-00-00_0193 ,24646.42
    9609    9609
Boundary for River Rch & Prof#=U101-00-00,U101-00-00_0193 , 1 
Up Type= 0 
Dn Type= 1 
Dn Known WS=100.8
Boundary for River Rch & Prof#=U101-00-00,U101-00-00_0193 , 2 
Up Type= 0 
Dn Type= 1 
Dn Known WS=101.8
Observed WS=U101-00-00      ,U101-00-00_0193 ,100145.7,0,170.15,
Observed WS=U101-00-00      ,U101-00-00_0193 ,99757.7 ,0,170.01,
Observed WS=U101-00-00      ,U101-00-00_0193 ,99692.97,0,169.99,
Observed WS=U101-00-00      ,U101-00-00_0193 ,99596.47,0,169.93,
Observed WS=U101-00-00      ,U101-00-00_0193 ,99553.45,0,169.9,
Observed WS=U101-00-00      ,U101-00-00_0193 ,99118.3 ,0,169.62,
Observed WS=U101-00-00      ,U101-00-00_0193 ,99068.97,0,169.45,
Observed WS=U101-00-00      ,U101-00-00_0193 ,98764.82,0,168.42,
Observed WS=U101-00-00      ,U101-00-00_0193 ,97700.91,0,166.94,
Observed WS=U101-00-00      ,U101-00-00_0193 ,97686.69,0,166.91,
Observed WS=U101-00-00      ,U101-00-00_0193 ,97642.79,0,166.9,
Observed WS=U101-00-00      ,U101-00-00_0193 ,97503.91,0,166.88,
Observed WS=U101-00-00      ,U101-00-00_0193 ,97192.83,0,166.83,
Observed WS=U101-00-00      ,U101-00-00_0193 ,97174.13,0,166.83,
Observed WS=U101-00-00      ,U101-00-00_0193 ,97085.78,0,166.81,
Observed WS=U101-00-00      ,U101-00-00_0193 ,96591.66,0,166.69,
Observed WS=U101-00-00      ,U101-00-00_0193 ,96527.58,0,166.68,
Observed WS=U101-00-00      ,U101-00-00_0193 ,96475.77,0,166.65,
Observed WS=U101-00-00      ,U101-00-00_0193 ,96297.05,0,166.55,
Observed WS=U101-00-00      ,U101-00-00_0193 ,96254.03,0,166.53,
Observed WS=U101-00-00      ,U101-00-00_0193 ,96040.27,0,166.41,
Observed WS=U101-00-00      ,U101-00-00_0193 ,95995.92,0,166.39,
Observed WS=U101-00-00      ,U101-00-00_0193 ,95871.22,0,166.32,
Observed WS=U101-00-00      ,U101-00-00_0193 ,95830.44,0,166.29,
Observed WS=U101-00-00      ,U101-00-00_0193 ,95752.84,0,166.25,
Observed WS=U101-00-00      ,U101-00-00_0193 ,95657.73,0,166.2,
Observed WS=U101-00-00      ,U101-00-00_0193 ,95644.5 ,0,166.17,
Observed WS=U101-00-00      ,U101-00-00_0193 ,95594.33,0,166.17,
Observed WS=U101-00-00      ,U101-00-00_0193 ,95524.92,0,166.15,
Observed WS=U101-00-00      ,U101-00-00_0193 ,95322.02,0,166.02,
Observed WS=U101-00-00      ,U101-00-00_0193 ,95282.95,0,166,
Observed WS=U101-00-00      ,U101-00-00_0193 ,95173.02,0,165.93,
Observed WS=U101-00-00      ,U101-00-00_0193 ,95119.43,0,165.88,
Observed WS=U101-00-00      ,U101-00-00_0193 ,95097.17,0,165.86,
Observed WS=U101-00-00      ,U101-00-00_0193 ,95061.74,0,165.82,
Observed WS=U101-00-00      ,U101-00-00_0193 ,95003.93,0,165.77,
Observed WS=U101-00-00      ,U101-00-00_0193 ,94207.76,0,165.01,
Observed WS=U101-00-00      ,U101-00-00_0193 ,93287.06,0,163.96,
Observed WS=U101-00-00      ,U101-00-00_0193 ,92350.25,0,161.83,
Observed WS=U101-00-00      ,U101-00-00_0193 ,92305.42,0,161.86,
Observed WS=U101-00-00      ,U101-00-00_0193 ,92256.93,0,161.82,
Observed WS=U101-00-00      ,U101-00-00_0193 ,92245.8 ,0,161.81,
Observed WS=U101-00-00      ,U101-00-00_0193 ,92205.4 ,0,161.78,
Observed WS=U101-00-00      ,U101-00-00_0193 ,91938.92,0,161.56,
Observed WS=U101-00-00      ,U101-00-00_0193 ,91578.98,0,161.33,
Observed WS=U101-00-00      ,U101-00-00_0193 ,91508.91,0,161.29,
Observed WS=U101-00-00      ,U101-00-00_0193 ,91417.91,0,161.23,
Observed WS=U101-00-00      ,U101-00-00_0193 ,90641.11,0,160.78,
Observed WS=U101-00-00      ,U101-00-00_0193 ,90590.89,0,160.74,
Observed WS=U101-00-00      ,U101-00-00_0193 ,89839.63,0,160.09,
Observed WS=U101-00-00      ,U101-00-00_0193 ,89791.85,0,160.05,
Observed WS=U101-00-00      ,U101-00-00_0193 ,89744.73,0,159.89,
Observed WS=U101-00-00      ,U101-00-00_0193 ,89694.23,0,159.71,
Observed WS=U101-00-00      ,U101-00-00_0193 ,89543.23,0,159.57,
Observed WS=U101-00-00      ,U101-00-00_0193 ,89492.98,0,159.51,
Observed WS=U101-00-00      ,U101-00-00_0193 ,89441.95,0,159.45,
Observed WS=U101-00-00      ,U101-00-00_0193 ,89398.27,0,159.4,
Observed WS=U101-00-00      ,U101-00-00_0193 ,88725.2 ,0,158.64,
Observed WS=U101-00-00      ,U101-00-00_0193 ,87583.91,0,157.84,
Observed WS=U101-00-00      ,U101-00-00_0193 ,87239.7 ,0,157.75,
Observed WS=U101-00-00      ,U101-00-00_0193 ,86968.8 ,0,157.66,
Observed WS=U101-00-00      ,U101-00-00_0193 ,86895.63,0,157.6,
Observed WS=U101-00-00      ,U101-00-00_0193 ,86647.11,0,157.48,
Observed WS=U101-00-00      ,U101-00-00_0193 ,85743.88,0,157.12,
Observed WS=U101-00-00      ,U101-00-00_0193 ,84739.7 ,0,156.63,
Observed WS=U101-00-00      ,U101-00-00_0193 ,83615.02,0,156.03,
Observed WS=U101-00-00      ,U101-00-00_0193 ,83574.32,0,156.03,
Observed WS=U101-00-00      ,U101-00-00_0193 ,83514.11,0,155.99,
Observed WS=U101-00-00      ,U101-00-00_0193 ,82999.61,0,155.76,
Observed WS=U101-00-00      ,U101-00-00_0193 ,82000.36,0,155.07,
Observed WS=U101-00-00      ,U101-00-00_0193 ,81188.76,0,154.72,
Observed WS=U101-00-00      ,U101-00-00_0193 ,81071.45,0,154.7,
Observed WS=U101-00-00      ,U101-00-00_0193 ,80941.05,0,153.62,
Observed WS=U101-00-00      ,U101-00-00_0193 ,80800.84,0,153.51,
Observed WS=U101-00-00      ,U101-00-00_0193 ,79906.94,0,153,
Observed WS=U101-00-00      ,U101-00-00_0193 ,79155.22,0,152.37,
Observed WS=U101-00-00      ,U101-00-00_0193 ,78183.56,0,151.6,
Observed WS=U101-00-00      ,U101-00-00_0193 ,77207.09,0,150.34,
Observed WS=U101-00-00      ,U101-00-00_0193 ,76083.47,0,149.5,
Observed WS=U101-00-00      ,U101-00-00_0193 ,75178.59,0,148.68,
Observed WS=U101-00-00      ,U101-00-00_0193 ,74013.76,0,147.9,
Observed WS=U101-00-00      ,U101-00-00_0193 ,73983.55,0,147.9,
Observed WS=U101-00-00      ,U101-00-00_0193 ,73928.7 ,0,147.9,
Observed WS=U101-00-00      ,U101-00-00_0193 ,73904.55,0,147.83,
Observed WS=U101-00-00      ,U101-00-00_0193 ,72447.08,0,146.88,
Observed WS=U101-00-00      ,U101-00-00_0193 ,71547.45,0,146.29,
Observed WS=U101-00-00      ,U101-00-00_0193 ,70595.77,0,145.42,
Observed WS=U101-00-00      ,U101-00-00_0193 ,69231.29,0,144.67,
Observed WS=U101-00-00      ,U101-00-00_0193 ,68228.34,0,143.93,
Observed WS=U101-00-00      ,U101-00-00_0193 ,67376.78,0,143.3,
Observed WS=U101-00-00      ,U101-00-00_0193 ,67342.94,0,143.29,
Observed WS=U101-00-00      ,U101-00-00_0193 ,67186.98,0,143.18,
Observed WS=U101-00-00      ,U101-00-00_0193 ,66963   ,0,142.95,
Observed WS=U101-00-00      ,U101-00-00_0193 ,65976.19,0,142.14,
Observed WS=U101-00-00      ,U101-00-00_0193 ,65202.7 ,0,141.54,
Observed WS=U101-00-00      ,U101-00-00_0193 ,64431.81,0,140.74,
Observed WS=U101-00-00      ,U101-00-00_0193 ,64170.88,0,140.65,
Observed WS=U101-00-00      ,U101-00-00_0193 ,64099.09,0,140.62,
Observed WS=U101-00-00      ,U101-00-00_0193 ,64044.47,0,140.56,
Observed WS=U101-00-00      ,U101-00-00_0193 ,63870.36,0,140.47,
Observed WS=U101-00-00      ,U101-00-00_0193 ,63281.11,0,139.94,
Observed WS=U101-00-00      ,U101-00-00_0193 ,62473.67,0,139.64,
Observed WS=U101-00-00      ,U101-00-00_0193 ,62112.98,0,139.5,
Observed WS=U101-00-00      ,U101-00-00_0193 ,61300.01,0,139.29,
Observed WS=U101-00-00      ,U101-00-00_0193 ,61062.95,0,139.23,
Observed WS=U101-00-00      ,U101-00-00_0193 ,60100.05,0,138.8,
Observed WS=U101-00-00      ,U101-00-00_0193 ,60076.41,0,138.77,
Observed WS=U101-00-00      ,U101-00-00_0193 ,60012.43,0,138.77,
Observed WS=U101-00-00      ,U101-00-00_0193 ,59985.94,0,138.73,
Observed WS=U101-00-00      ,U101-00-00_0193 ,59580.12,0,138.28,
Observed WS=U101-00-00      ,U101-00-00_0193 ,58910.02,0,137.29,
Observed WS=U101-00-00      ,U101-00-00_0193 ,58579.48,0,136.8,
Observed WS=U101-00-00      ,U101-00-00_0193 ,57954.2 ,0,136.31,
Observed WS=U101-00-00      ,U101-00-00_0193 ,57379.89,0,135.74,
Observed WS=U101-00-00      ,U101-00-00_0193 ,56593.08,0,134.96,
Observed WS=U101-00-00      ,U101-00-00_0193 ,55716.98,0,133.92,
Observed WS=U101-00-00      ,U101-00-00_0193 ,54496.94,0,131.88,
Observed WS=U101-00-00      ,U101-00-00_0193 ,53801.16,0,131.08,
Observed WS=U101-00-00      ,U101-00-00_0193 ,53721.16,0,130.99,
Observed WS=U101-00-00      ,U101-00-00_0193 ,53611.05,0,130.86,
Observed WS=U101-00-00      ,U101-00-00_0193 ,53572.32,0,130.82,
Observed WS=U101-00-00      ,U101-00-00_0193 ,53530.98,0,129.91,
Observed WS=U101-00-00      ,U101-00-00_0193 ,53423.02,0,129.21,
Observed WS=U101-00-00      ,U101-00-00_0193 ,53419.87,0,129.29,
Observed WS=U101-00-00      ,U101-00-00_0193 ,53409.96,0,129.54,
Observed WS=U101-00-00      ,U101-00-00_0193 ,53339.23,0,129.45,
Observed WS=U101-00-00      ,U101-00-00_0193 ,53226.12,0,129.32,
Observed WS=U101-00-00      ,U101-00-00_0193 ,53121.04,0,129.19,
Observed WS=U101-00-00      ,U101-00-00_0193 ,52062.53,0,128.3,
Observed WS=U101-00-00      ,U101-00-00_0193 ,51513.27,0,127.89,
Observed WS=U101-00-00      ,U101-00-00_0193 ,50911.78,0,127.45,
Observed WS=U101-00-00      ,U101-00-00_0193 ,50735.53,0,127.32,
Observed WS=U101-00-00      ,U101-00-00_0193 ,50632.55,0,127.25,
Observed WS=U101-00-00      ,U101-00-00_0193 ,49800.39,0,126.7,
Observed WS=U101-00-00      ,U101-00-00_0193 ,49123.86,0,126.47,
Observed WS=U101-00-00      ,U101-00-00_0193 ,48890.5 ,0,126.38,
Observed WS=U101-00-00      ,U101-00-00_0193 ,48759.05,0,126.28,
Observed WS=U101-00-00      ,U101-00-00_0193 ,48099.26,0,125.92,
Observed WS=U101-00-00      ,U101-00-00_0193 ,47700.77,0,125.62,
Observed WS=U101-00-00      ,U101-00-00_0193 ,47546.16,0,125.5,
Observed WS=U101-00-00      ,U101-00-00_0193 ,47176.75,0,125.23,
Observed WS=U101-00-00      ,U101-00-00_0193 ,46896.98,0,125.03,
Observed WS=U101-00-00      ,U101-00-00_0193 ,46603.5 ,0,124.81,
Observed WS=U101-00-00      ,U101-00-00_0193 ,46472.27,0,124.71,
Observed WS=U101-00-00      ,U101-00-00_0193 ,46335.09,0,124.22,
Observed WS=U101-00-00      ,U101-00-00_0193 ,45896.04,0,123.82,
Observed WS=U101-00-00      ,U101-00-00_0193 ,45743.27,0,123.68,
Observed WS=U101-00-00      ,U101-00-00_0193 ,45377.89,0,123.42,
Observed WS=U101-00-00      ,U101-00-00_0193 ,44351.62,0,122.7,
Observed WS=U101-00-00      ,U101-00-00_0193 ,43550   ,0,122.06,
Observed WS=U101-00-00      ,U101-00-00_0193 ,42980.1 ,0,121.79,
Observed WS=U101-00-00      ,U101-00-00_0193 ,42786.2 ,0,121.61,
Observed WS=U101-00-00      ,U101-00-00_0193 ,42713.65,0,121.21,
Observed WS=U101-00-00      ,U101-00-00_0193 ,42135.18,0,120.78,
Observed WS=U101-00-00      ,U101-00-00_0193 ,41930.96,0,120.64,
Observed WS=U101-00-00      ,U101-00-00_0193 ,40683.68,0,119.65,
Observed WS=U101-00-00      ,U101-00-00_0193 ,40002.11,0,119.19,
Observed WS=U101-00-00      ,U101-00-00_0193 ,39070.47,0,118.32,
Observed WS=U101-00-00      ,U101-00-00_0193 ,38548.08,0,117.84,
Observed WS=U101-00-00      ,U101-00-00_0193 ,38347.6 ,0,117.56,
Observed WS=U101-00-00      ,U101-00-00_0193 ,38316.57,0,117.54,
Observed WS=U101-00-00      ,U101-00-00_0193 ,37581.29,0,117.34,
Observed WS=U101-00-00      ,U101-00-00_0193 ,37364.75,0,117.31,
Observed WS=U101-00-00      ,U101-00-00_0193 ,37219.4 ,0,117.01,
Observed WS=U101-00-00      ,U101-00-00_0193 ,36591.11,0,116.3,
Observed WS=U101-00-00      ,U101-00-00_0193 ,35792.36,0,115.6,
Observed WS=U101-00-00      ,U101-00-00_0193 ,34769.88,0,114.39,
Observed WS=U101-00-00      ,U101-00-00_0193 ,34393.11,0,113.95,
Observed WS=U101-00-00      ,U101-00-00_0193 ,33420.95,0,111.81,
Observed WS=U101-00-00      ,U101-00-00_0193 ,32152.3 ,0,111.34,
Observed WS=U101-00-00      ,U101-00-00_0193 ,31747.41,0,111.16,
Observed WS=U101-00-00      ,U101-00-00_0193 ,31447.05,0,111.04,
Observed WS=U101-00-00      ,U101-00-00_0193 ,31343.59,0,110.85,
Observed WS=U101-00-00      ,U101-00-00_0193 ,31253.61,0,110.79,
Observed WS=U101-00-00      ,U101-00-00_0193 ,31076.4 ,0,110.67,
Observed WS=U101-00-00      ,U101-00-00_0193 ,30385.92,0,110.21,
Observed WS=U101-00-00      ,U101-00-00_0193 ,29947.52,0,110.04,
Observed WS=U101-00-00      ,U101-00-00_0193 ,29898.14,0,110.02,
Observed WS=U101-00-00      ,U101-00-00_0193 ,29812.82,0,109.97,
Observed WS=U101-00-00      ,U101-00-00_0193 ,29699.63,0,109.93,
Observed WS=U101-00-00      ,U101-00-00_0193 ,29249.24,0,109.79,
Observed WS=U101-00-00      ,U101-00-00_0193 ,28913.98,0,109.71,
Observed WS=U101-00-00      ,U101-00-00_0193 ,27746.61,0,109.41,
Observed WS=U101-00-00      ,U101-00-00_0193 ,26767.03,0,109.28,
Observed WS=U101-00-00      ,U101-00-00_0193 ,26701.34,0,109.27,
Observed WS=U101-00-00      ,U101-00-00_0193 ,26611.14,0,109.26,
Observed WS=U101-00-00      ,U101-00-00_0193 ,26316.96,0,109.22,
Observed WS=U101-00-00      ,U101-00-00_0193 ,25395.09,0,109.04,
Observed WS=U101-00-00      ,U101-00-00_0193 ,24933.98,0,108.86,
Observed WS=U101-00-00      ,U101-00-00_0193 ,24646.42,0,108.73,
Observed WS=U101-00-00      ,U101-00-00_0193 ,24472.12,0,107.73,
Observed WS=U101-00-00      ,U101-00-00_0193 ,24324.98,0,107.6,
Observed WS=U101-00-00      ,U101-00-00_0193 ,23269.93,0,106.65,
Observed WS=U101-00-00      ,U101-00-00_0193 ,22132.32,0,105.93,
Observed WS=U101-00-00      ,U101-00-00_0193 ,21398.91,0,105.11,
Observed WS=U101-00-00      ,U101-00-00_0193 ,20720.25,0,104.01,
Observed WS=U101-00-00      ,U101-00-00_0193 ,19300.97,0,100.8,
DSS Import StartDate=
DSS Import StartTime=
DSS Import EndDate=
DSS Import EndTime=
DSS Import GetInterval= 0 
DSS Import Interval=
DSS Import GetPeak= 0 
DSS Import FillOption= 0 
