Geom Title=U101-00-00 2019 (ReStudy)
Program Version=4.10
Viewing Rectangle= 2953474.34787802 , 3036805.0301927 , 13884719.1870304 , 13849542.2483293 

River Reach=U101-00-00      ,U101-00-00_0193 
Reach XY= 3909 
2954291.3153516913878615.41419872954372.89392869 13878621.695026
2954423.5627906213878619.9775098 2954446.750080213878620.8361039
2954469.9373697813878620.83610392954493.1246593613878625.9889807
2954508.5829617813878625.98898072954529.1941410313878623.4125423
2954551.5228365213878623.41254232954577.2865645313878624.2714644
 2954633.107975213878622.55362012954652.8602322813878629.4240132
2954674.3300056213878627.70649692954808.3015224513878632.8593738
2954901.0510088713878638.01192252954956.8727476213878639.7294388
2954968.0370953513878642.30587722954992.0829790213878642.3058772
2955016.9881129413878643.16479932955029.0110547813878642.3058772
2955043.6107631213878640.58836092955064.2216142713878645.7412378
2955090.8442644513878642.30587722955100.29109594 13878647.458754
2955124.33697961 13878647.4587542955136.3602495313878645.7412378
2955155.2535844413878656.04666342955172.4294031113878649.1762703
2955196.4756148613878648.31734812955216.2278719413878649.1762703
2955242.8505221213878651.75270872955286.6489909413878651.7527087
2955311.0367374413878652.13328542955314.6476226213878652.0043486
 2955319.9353417 13878653.1004752955328.0599973613878653.2937161
2955339.6022971113878653.16477942955346.09637861  13878654.61622
2955354.7918992813878655.58242542955363.48709185 13878659.446919
2955376.04677802  13878654.616222955385.70817603  13878654.61622
2955404.06509469  13878654.616222955420.48927444  13878654.61622
2955470.2457366113878655.58242542955487.1531831213878658.4807136
2955501.6452801113878660.41312442955516.13737711 13878659.446919
2955582.3180190313878661.37932982955698.7380617713878664.7608848
2955824.81950253 13878669.1083172955855.7361073613878671.0407279
2955881.3387464413878670.07452242955904.5260360213878671.0407279
2955920.9505438713878674.90522142955949.9347378613878675.3884882
2955966.8421843613878674.42228282955986.1649803713878673.4560774
2956002.1065495313878673.45607742956023.3614282813878677.3205709
2956037.8535252813878673.45607742956055.24423853 13878673.939016
2956096.7881186913878679.73592042956344.6035679413878686.0157635
2956628.16599295 13878693.2618122956928.1529257713878705.3385595
2957128.1439956113878712.58493612957324.2708999413878719.3477179
2957550.8308142713878728.52617722957645.5127115313878730.4582599
2957779.3234675213878734.32308162957859.0300010313878735.7722257
2957890.9128112813878737.70430842957937.2873904413878740.6029247
2958005.8833818613878743.50121292958042.5968911113878742.5350074
 2958068.199530213878744.95035692958119.8880751113878745.4336237
2958137.2787883613878747.84897322958155.6353789413878749.7810559
2958174.9581749413878747.36570642958187.0349224513878746.3998291
2958202.9761635213878748.81517862958217.4682605313878749.2981173
2958235.8251791913878752.67967222958251.2834816113878749.2981173
2958258.0462633713878748.33191182958282.1997583713878749.2981173
2958302.0058211113878753.64587762958332.9224259413878755.5779604
2958363.3557640313878755.57796042958537.2612561113878758.4765766
2958561.4147511113878761.37486482958616.00158419 13878764.273481
2958746.9137239513878766.20556382958922.7516268613878771.5195295
2959052.6975611913878775.38402312959098.5012753613878778.7504862
 2959141.494627713878779.23342492959330.85842219 13878786.962412
2959418.53574027 13878791.0687032959448.9690783613878794.3295233
2959644.9752480213878800.85083572959845.6910539413878810.2707644
 2960021.045690113878816.42987282960138.79414228 13878819.690693
2960214.1532435313878821.50204112960365.2333219513878826.9367415
2960471.7504973613878830.55976582960567.3986000313878835.2697301
2960649.2790136913878838.53022232960775.3604544413878841.0666345
2960872.4577011913878844.6896588 2960930.063885213878847.2257429
2961013.0312389413878850.84876722961063.0288423613878852.6601153
2961125.7075227813878853.74705542961167.3721376113878854.1092594
2961217.3700691213878854.8339954 2961282.947037713878858.4570197
2961373.5226439413878860.99310382961515.90785787 13878863.529188
2961686.5525296913878865.70306822961858.2841416213878873.3113207
 2961968.424013213878876.57214092962068.0573441113878879.4707572
2962145.9525295213878882.73124932962218.7755466113878885.9920696
2962239.0645480313878887.44121372962550.2827576113878899.0350225
2962626.1851648513878902.92969982962819.3832692813878909.4513403
 2963433.302973213878933.32563642963691.0816571113878943.6133454
2963812.9511640213878946.46668622963931.1526992813878947.6894528
2964041.8135671913878950.94994492964183.2476675213878955.0260523
2964273.9364625213878957.26784572964280.0502954413878959.9171186
2964288.60998961 13878966.4384312964300.02236836 13878966.438431
2964313.2690610313878961.13988522964329.7765739413878960.3245981
2964339.9661861113878963.38167862964382.5596048513878967.0499783
2964394.9414698613878966.63167212964432.9000553613878965.3498505
2964443.5499684413878964.88003522964467.6440803613878965.5545745
2964530.7098991113878967.31999092964588.94829969 13878969.178583
2964664.24768978 13878971.9974752964714.6934550313878972.4991144
2964764.7599559413878973.40987382964790.9698772713878974.0201088
2964793.6270241913878974.31079062964832.7201218613878978.5899815
2964837.69353712 13878979.0013982964869.9506904513878981.6703559
2964986.4123997813878988.04599932965021.2660046113878987.1959354
2965127.5266188513878992.29631892965148.0967876913878993.9360794
2965148.6420621913878993.97938642965186.1826695213878996.9718345
2965287.5945401913878997.74873582965318.8254488613878999.2264232
2965369.37620078 13879002.4974142965466.2857838613879005.4728018
2965492.2135535313879006.32286572965631.2024487713879013.9734409
2965711.5356214513879014.39863692965784.6430867813879015.6735688
2965791.9882164413879015.99476232965791.9993712813879015.9960747
2965818.3897384413879017.14961572965930.4328214413879022.0492122
 2966085.9984552  13879023.749342966130.6279591213879031.4002434
2966222.4371586913879030.97537542966254.3153757813879033.1003712
2966336.3486762813879036.07575892966426.8829440313879037.7758868
2966445.0922251913879038.31131882966453.2959489413879038.5527881
2966556.9460041113879041.60133842966619.0023104413879043.7266623
2966678.50842503 13879045.8516582966745.6651148613879045.4267901
2966828.5484792713879049.67710972966869.3525315213879051.8024335
2966953.5892396913879053.43792892966956.9114115213879053.5025613
2966995.5904680313879055.20268922967015.9818314513879056.2633826
2967025.0018265213879054.9986214 2967052.502427713879056.9976331
2967086.7530153513879057.99697492967138.7430688613879060.4615369
2967160.67773628 13879061.2177692967171.1330959513879061.5783326
2967222.5634392813879064.5537204 2967305.021607713879064.5537204
2967423.1834448613879070.92936382967427.8632255213879071.0628937
2967445.2598442713879071.55993992967466.7473341113879069.9982633
2967484.9989380213879071.99694692967523.0018147813879073.9959587
2967565.7474641913879070.99760512967593.2480653713879071.9969469
2967616.9967055313879077.00251432967635.2483094513879077.0025143
2967658.2515442813879077.00251432967680.2472351913879078.0018562
2967721.7478083713879080.00053992967788.5045646113879083.9982353
2967820.7482665313879083.99823532967845.75018503 13879085.997247
 2967858.496878713879083.99823532967880.5004436113879086.9965889
 2967906.002361113879088.00413282967934.2483676113879089.0038027
2967979.6354159413879092.57892682967988.8739145213879092.6186249
 2968029.1618917 13879092.7925092968058.6907040313879095.9447337
2968083.6263496913879096.70030962968166.7459341113879102.7455731
2968283.86905944 13879103.5011492968308.8047051113879105.7678768
2968404.7700643513879108.79050852968464.4648268713879111.0575643
2968530.9604287713879111.05756432968574.78711277 13879114.079868
 2968620.125276713879112.56871622968673.7751037813879114.8354439
2968737.9475476113879116.1864911 2968745.560065213879116.3469239
 2968766.762778713879118.00341662968793.9205327813879120.1251315
2968812.8112430313879120.12513152968932.95667203 13879125.414491
2968995.6740662813879126.92564282969028.9220312813879128.4371228
2969117.3309751913879129.19269872969254.1003866913879131.4594264
2969290.3706553613879134.48205822969399.9373653513879139.7714177
2969449.0534088613879139.77141772969476.2561103613879141.2825695
2969508.7481713613879142.79404942969551.8192794513879146.5722571
2969616.80372953 13879147.3278332969671.9647084513879150.3504648
2969719.5696001113879148.8389848 2969757.351020613879148.8389848
 2969789.087505713879154.88424832969809.4896958613879157.1509761
2969825.3581024413879154.88424832969860.8727951913879155.6398243
2969887.3199207813879156.39540022969913.76704636 13879157.906552
 2969953.059618713879160.17360792969981.0182241913879158.6621279
2970010.4876534513879158.66212792970024.8449081913879161.6847597
2970043.7356184413879165.4629674 2970079.250311213879166.2185433
2970096.6298696113879163.19591152970136.6783459513879164.7073914
2970166.9036791913879166.97411922970182.7717576913879168.4855991
2970195.6175325213879166.2185433 2970228.109921613879168.4855991
2970276.4700611113879170.75232682970310.4736020313879171.5079028
2970347.4994466213879173.77495862970352.4574419413879173.0236478
2970372.4354203613879169.99675092970376.6388240313879171.0056072
2970391.3261306113879174.53053452970417.0176802713879176.0416864
2970453.2879489413879177.55316632970488.0470657813879177.5531663
2970518.2723990213879179.06431812970553.03151587 13879179.819894
2970584.0124250213879178.30874222970618.0159659413879181.3310459
2970648.9968751113879184.35367762970679.2218802713879182.8425258
2970701.1352222713879183.59810172970716.2480529413879186.6207334
2970739.6725467713879187.37630942970769.8978800313879184.3536776
2970802.3899410213879186.62073342970834.1264261213879190.3989411
2970874.17490244 13879191.1545172970899.8664521113879192.6656688
2970927.0691536113879191.91009292970955.7833350313879193.4212448
2970998.0985391113879193.42124482971023.0345128613879195.6883006
2971035.8802876913879198.71060432971055.5265738713879200.2220842
2971076.6843399413879203.24438792971103.8870414513879203.2443879
2971140.9132141213879205.51144372971184.7395700213879206.2670196
2971199.09682478 13879201.7332362971214.9649032813879202.4888119
2971239.9008770313879203.24438792971259.2472950213879204.5787028
2971261.8142190313879204.75586782971273.4027785213879208.0006119
2971280.7049292813879210.04522732971294.3062800313879207.0225955
 2971325.287189213879205.5114437 2971337.377388113879210.0452273
2971358.53515419 13879213.0678592971379.6925921913879213.8234349
2971403.8729900313879211.55637912971428.0530597713879213.8234349
2971456.0116652713879213.82343492971474.90237553 13879212.311955
2971508.90591644 13879213.0678592971527.7966266913879216.0901627
2971544.42060919 13879213.0678592971569.35625486 13879213.067859
2971588.2472931913879214.57901092971597.3148603613879217.6016426
2971624.5175618513879219.86837042971684.9679002813879221.3798503
2971714.43765761 13879223.6465782971721.7549001913879220.8322792
2971724.2608006913879219.86837042971737.6718631113879220.3841174
2971743.9074149413879220.6239463 2971757.508765713879224.4021539
 2971773.376844213879224.40215392971776.4260506913879224.1370626
2971790.7564026113879222.89100212971794.6619066113879222.8910021
2971807.3803851213879222.89100212971843.6506537813879224.4021539
2971864.0528439413879226.66920982971878.4097706113879228.1803616
2971883.5524768513879225.32341192971885.2106100313879224.4021539
2971898.8119607713879222.89100212971899.2223930213879223.0507787
2971912.4133115313879228.18036162971944.9053725313879228.1803616
2971957.7511473613879229.69151342971974.3751298613879229.6915134
2971985.7094247813879229.69151342971995.5325678613879235.7367769
2972025.0023251913879237.24792882972053.7165066213879237.2479288
2972084.6974157813879236.49235292972120.2121085213879235.7367769
2972157.9935290213879236.49235292972221.46649919 13879234.981201
2972269.8269667813879238.00350472972296.2740923613879238.7590806
2972312.8980748713879238.75908062972337.0784726913879239.5149846
2972383.1718844513879241.02613642972408.8634341113879242.5372883
2972447.40043053  13879245.559922972495.7608981113879246.3154959
2972525.9862313613879247.07107182972563.7679799513879250.0937036
2972592.4818332813879250.84927952972616.6622311213879250.8492795
2972643.8649326113879251.60485542972668.8005782813879252.3607594
2972694.4921279413879255.38306312972727.74009295 13879256.138639
2972770.05529703 13879256.1386392972791.9686390313879258.4056949
 2972822.949548213879259.16127082972858.4642409413879259.1612708
2972887.9339982713879259.16127082972925.7154187713879261.4283266
2972967.2753750213879262.93947842972996.7448042813879263.6950544
2973025.4589856913879265.96211022973072.3083014513879271.2514697
2973086.6652281113879266.71768612973113.86792961 13879267.473262
2973166.7621807813879271.25146972973216.6338001913879272.7626215
2973250.6373411113879274.27377342973281.6182502813879277.2964051
2973307.0043543613879278.00145622973308.82095177 13879278.051981
2973332.2454456113879276.5408292 2973359.448147113879277.2964051
2973397.9854716113879276.54082922973453.1467786113879279.5634609
2973535.0865753613879283.6024949 2973550.560297713879284.3652886
2973560.4464327813879284.85282042973607.2954204413879285.6083964
2973653.3891602813879285.60839642973685.88122128 13879289.386604
2973707.79456328 13879289.3866042973750.11009544 13879289.386604
2973778.8239487713879290.14217992973818.8724251113879294.6759635
2973852.1203901213879294.67596352973923.9053515213879295.4315394
2973955.6418366113879296.94301932973991.9121052813879302.2323789
2974009.2916636913879303.74353072974035.7387892813879303.7435307
2974084.8548327813879304.49910662974125.6588850313879306.0105865
2974170.2411449413879307.52173842974195.9326946113879307.5217384
2974218.6016125213879307.52173842974237.4926508713879309.0328902
2974269.9847118613879312.81109782974296.4318374413879314.3225778
2974335.7247378513879312.05552192974362.1718634413879312.0555219
 2974392.397196713879315.07815372974446.0470237713879315.0781537
2974467.2044617813879315.83372962974501.2080026913879320.3675132
2974549.56847028 13879321.8786652974603.2182973613879322.6342409
2974631.9324787713879323.39014492974681.0485222813879324.1457209
2974712.7850073613879325.65687272974740.7432847813879324.1457209
2974787.5926005213879323.39014492974812.5282461913879325.6568727
2974827.6410768613879325.65687272974848.7988429413879322.6342409
2974855.5993542813879324.90129682974891.1140470213879327.1680245
2974913.7829649413879326.41244862974959.1208007813879324.9012968
2974975.7447832813879326.41244862975013.5265318613879333.9688639
2975050.5523764513879340.76937532975089.8452768613879343.0364311
 2975151.8070952 13879343.7920072975192.6111474513879346.0590629
 2975271.952524213879349.83727052975351.2939009413879352.1039983
2975414.7668711113879354.37105412975475.2175376113879359.6604136
2975548.5136508613879367.9724049 2975577.983408213879367.9724049
2975639.1896506113879368.72798082975710.2190361213879368.7279808
2975745.7337288613879370.99470852975781.2484216113879374.7729162
2975805.4284913513879372.50618842975829.6088891913879367.9724049
 2975862.100950213879370.99470852975905.1720582813879373.2617643
2975939.9311751113879375.52849212975976.2014437813879375.5284921
2976028.3401190313879374.01734032976068.3885953613879377.7955479
2976109.1926476113879381.57375562976138.6624049413879384.5960593
2976171.1544659413879386.10753922976197.6015915313879386.1075392
2976224.0487171113879385.3519633 2976250.495842713879384.5960593
2976270.1421288613879388.37426692976293.5669507813879391.3968987
2976318.5025964413879389.12984282976347.2167778613879389.8857469
2976378.1976870313879386.86311512976409.9341721113879389.1298428
2976443.1818090213879389.12984282976458.2946396913879392.9080505
2976480.2079816913879395.17510632976502.8768996113879396.6862582
2976532.3466569513879400.46446592976563.3275661213879401.2200418
2976594.3084752713879401.2200418 2976632.845471713879399.7088899
 2976661.559653113879399.70888992976685.7397228613879404.9982494
2976707.6530648613879405.7538254 2976731.077558713879404.2426735
2976755.2579565213879402.73119362976778.6824503513879403.4870976
2976806.6410558713879403.48709762976836.8660610313879404.2426735
2976884.4709526913879408.02088122976906.38429469 13879409.532033
2976925.27500494 13879409.5320332976947.1883469413879410.2876089
2976991.7706068613879411.79908892977019.7292123613879411.7990889
2977041.6425543613879414.06581662977105.1155245313879416.3328724
2977124.0062347813879419.35517612977233.57294478 13879420.866656
2977245.6631436913879425.40043962977335.5832394413879424.6445356
 2977354.473949713879429.17831922977377.1428676113879429.9342232
2977398.2150039413879427.97425342977419.0154872813879428.4522708
2977431.6870498713879430.36499662977439.8159706113879432.5168952
2977455.5957946913879432.99491262977471.8162346913879432.9949126
2977476.6840071113879432.99491262977481.8952827813879432.9949126
2977493.3716377813879430.6041694 2977504.847664713879426.0615275
2977533.0021359513879420.08352112977539.7544190313879418.6497969
2977563.4144766913879415.32959362977572.3140651913879404.7226594
2977573.2989713613879341.47737912977572.7323714513879326.7425004
2977568.1985878613879303.50698262977575.5660271913879287.0719761
2977601.6352007813879272.33709742977623.7375187713879257.6022188
2977636.2053416113879257.60221882977648.1065645213879247.4011237
2977665.1084990213879234.93330092977679.8433776913879223.0320779
2977695.1448562713879212.83098282977704.2124234413879207.1636714
2977721.7809578613879194.69584852977731.9817248613879184.4947534
2977741.6162200313879171.46033072977761.4691986913879143.6109769
2977776.7109661113879118.50702452977784.9593091913879109.1825681
2977813.1118119513879073.85750752977825.6639521913879059.5123919
 2977837.498574213879045.70500482977848.7954676213879032.7942694
2977854.1750500213879019.88353412977862.4233931213879008.2283737
2977871.2097928713879002.13160112977891.4725476113878967.8823258
2977908.3281569513878939.01263282977924.8251711913878918.5707446
2977939.5288819413878901.71513532977953.3362690213878887.5491531
2977964.0951057813878872.84544242977992.0681469413878840.7480656
2978004.4408256113878819.05093052978010.7045926213878809.1913702
2978014.1238771113878803.80916312978021.6553581113878794.4847067
2978022.7242536113878793.57230692978036.3590688613878781.9325664
2978042.6349749413878770.6360011 2978060.925292713878748.5802709
2978067.5597938613878740.86965642978085.3120549513878712.7171537
 2978097.864195213878694.96489262978110.23687387 13878682.950809
2978118.8438120313878676.31630792978129.6029768613878663.0469774
2978136.4169396213878649.95678052978150.4034601913878628.0805119
2978159.5484550313878614.63171992978188.5976095213878575.5412469
2978208.1428460313878549.18171962978222.84655678 13878533.222762
2978234.6815068613878516.36715272978241.5515718613878504.1325971
 2978247.771375713878493.05617572978262.5019892813878476.2212356
2978267.8546688613878470.10379382978278.0757770213878455.0414879
2978278.4819441913878454.39122682978286.1449866113878442.1307526
2978294.21386811 13878430.1166692978303.3591910313878418.9992372
2978306.7532131113878415.77056912978318.0629017813878405.0127166
2978327.5664916913878391.74338622978338.1461949513878376.5016188
2978348.0083799413878367.53575742978353.2085007713878358.7493577
2978365.9401026113878340.2799064 2978374.0093122 13878327.010576
2978381.5404651213878318.58277132978390.6854599413878308.7205864
2978398.7546695313878297.60282642978412.0239999413878279.3128368
2978418.4793676113878265.86404482978429.9553945213878253.3122326
2978441.7903446113878240.0429022 2978459.542277613878212.9661847
2978475.5015632813878193.06235312978486.6189951213878179.4344276
2978489.6672173613878172.44100332978495.0467997813878163.1165469
2978503.1160093513878154.6887422 2978510.288567213878146.2609375
2978516.3853397813878138.55065112978520.3302137713878127.7914863
2978523.29444669 13878119.936187 2978523.916492713878118.2878964
2978528.5785568713878111.1153385 2978533.599544213878105.1980275
2978534.4095819413878104.7268998 2978541.310158713878100.7150968
2978551.53093877 13878097.487413 2978554.938084213878090.6734503
2978564.8002691913878072.56259412978573.7661305213878055.3483897
 2978579.862903113878043.51343962978585.0630239413878036.3408818
2978597.4357026113878028.80972882978605.8635072713878020.5613858
2978611.7808182813878011.59552442978614.29131195 13878004.243505
 2978626.843452213877989.53979432978640.6505111913877970.1736913
2978644.0576566213877963.71832362978662.6166746213877943.8594394
2978673.1963778613877933.27973622978681.2652593613877924.8519315
2978686.64484178 13877913.1964432978694.5345897813877901.0028979
2978702.9623944513877888.63021922978711.3901991113877880.9196047
2978721.9699023713877866.39535552978727.5286182813877857.9675509
2978740.0807585313877843.98070222978752.8120322813877828.3803397
2978763.2122739413877813.85576242978764.6217199413877809.1940264
 2978767.874666213877798.4348615 2978771.640078613877790.1861904
2978782.9369720213877777.63437822978792.97861861 13877765.440833
2978800.8683666113877756.29583822978810.0136895313877745.3575398
2978816.4690571913877733.34345632978822.9240967813877726.1708984
2978843.9040416913877706.44620042978850.1802758613877696.4045538
2978852.5113079413877689.05253442978856.0975868613877680.8041913
2978865.6011767813877670.94200632978877.43612686 13877656.417429
2978887.2983118613877642.43090842978893.9331411113877631.4926101
2978900.0295856113877621.80955862978905.5883015213877614.4575392
2978915.6023891113877604.44345162978915.9888712813877604.0572975
2978923.3405626113877597.60192992978931.9478288613877589.7121819
2978939.8375768713877581.28437722978943.4238557813877573.2151676
2978945.9343494513877566.22207132978952.74831219 13877553.311336
2978962.4313636913877541.2972524 2978968.348674713877531.2556058
2978970.4244579413877525.62143082978970.8591683713877524.4416431
2978974.6245807713877517.62768032978979.4661065313877508.8412806
2978988.7997492713877499.20153612978990.4044048613877497.5443872
2979002.5979500313877484.27505682979010.3085645313877475.1300619
2979021.4259963613877460.60548472979030.9295862813877447.6947494
2979039.1782574513877434.06682392979053.3439115313877419.9008417
2979060.5164693613877407.3487014 2979077.1929452 13877384.217186
2979086.1588065313877370.2306654 2979109.828378613877342.6162194
2979125.2492795313877316.61561522979128.1183682813877311.0565712
2979149.6360417813877286.84927052979165.9539225313877269.9936612
2979178.3266011913877253.13805192979195.7199391113877232.3375685
2979211.85835828 13877211.1781622979236.4245821113877180.5154937
2979252.7421347813877155.59067482979276.9497635213877119.9070191
2979304.0264810313877082.96811662979327.33745803 13877053.560367
2979339.1140092813877036.66309112979352.0828153613877018.0558449
2979378.2628811213876984.34462622979408.56695436 13876942.564526
2979436.5399955213876909.39103592979464.5133647813876876.0384123
2979477.77318078  13876863.753662979501.0936721913876842.1480602
2979529.35739519 13876821.2498082979530.6805552813876820.2714635
2979551.4810386213876807.89878482979563.3156606113876805.7472143
2979569.4107927813876800.12091332979570.5407117813876799.0779364
2979572.6401170313876797.13994812979576.0472624513876783.6911561
2979580.8887881913876776.87719332979598.6407211913876764.6839763
2979634.6833000313876743.16597472979660.8630376913876731.3313527
2979682.2015776913876724.51738992979697.4433451113876716.0895853
2979727.0305562813876699.05451432979747.6515780213876679.1506828
 2979779.211226213876646.15665432979807.5428624513876615.3145244
2979837.8469356913876585.18958462979864.20646302 13876555.781835
 2979884.468889713876527.27073722979884.8888363513876526.6027595
2979890.7595595313876517.26321132979896.3038397713876508.4426908
2979910.1108987813876485.84923212979922.6630390313876461.4621418
2979929.4770017713876437.07537952979935.7529078613876407.6676299
 2979938.980591713876389.01904522979944.68760128 13876365.183791
2979945.0773642813876363.55616962979958.7052897813876321.4171463
2979965.3401190313876298.46509242979970.9460789413876255.5432623
2979971.0779684513876254.53276562979975.2023040213876229.4288132
2979981.6576716913876213.46952752979996.3613824413876188.3655751
2980013.9345100213876157.16485012980027.5624355213876136.3643668
2980030.4315242813876125.06747342980032.4580950313876118.6757538
2980037.4246205213876103.01174322980042.9833364513876087.9491093
 2980047.287133613876061.41044842980050.2785974413876042.7713781
2980051.94919778 13876032.3616222980054.1010963613876007.4368031
2980057.3284521113875973.72558442980059.8389457813875955.0766716
2980060.8973426113875948.91854742980063.7838197813875932.1242897
2980070.7772441113875911.32380632980072.7496811213875884.4265504
2980074.9015796913875862.72941542980078.48785861 13875837.984058
2980083.3293843613875806.96246652980083.4606176913875801.8460069
2980083.5085178613875799.96937032980089.7847520313875767.8719935
2980097.8539616213875743.84382642980109.6885836113875714.4360768
2980119.9096917813875695.60803042980130.13047186 13875678.393826
2980133.1786941113875668.5313129 2980136.440826713875662.9515997
2980146.8069476913875645.22033592980153.2619872813875626.2131561
 2980156.848266213875590.88809552980160.7934682813875560.9422893
2980165.8141275213875541.93510942980167.0693743713875537.4521788
2980172.6280902813875520.95516452980175.4971790313875494.9545604
2980177.8282111113875466.44346252980183.0283319513875420.0009701
2980187.5112626113875386.28975142980197.0148525213875375.7100482
2980202.5738965313875361.90266112980208.4912075313875345.2265134
2980209.5669927713875323.17078322980208.8498026113875309.1842626
2980202.9324916213875289.10096942980200.7805930213875276.7282908
2980198.4495609413875249.11351662980196.1185288613875237.6374897
2980192.5063313513875227.14046342980190.3803513613875220.9613419
2980186.4354773613875205.00205632980182.84919845 13875182.587731
2980183.5663886113875141.70395452980183.0283319513875119.2896293
2980183.74552211 13875098.8477412980187.1526675213875085.2198155
2980192.8908450313875067.46755442980202.3944349413875043.2599257
2980210.6427780213875021.74225222980215.6575317813875007.1343418
 2980218.8914492 13874997.7140852980219.36881045 13874985.064504
2980219.6086393613874978.70657712980222.2982665313874959.5199357
2980229.8989731113874950.93202642980236.1056536113874943.9195732
2980243.6223708513874928.10267572980244.71291986 13874925.808717
2980254.5751048613874896.7595625 2980263.540966213874865.2002424
2980264.4372898613874855.33805742980270.3549289413874838.6615816
2980273.7427174413874828.75871432980282.0104174513874804.5917678
2980288.82438019 13874774.1082332980298.1485085313874733.4039181
2980299.4037553713874720.49318282980299.7623504413874692.5198135
2980297.2210169413874668.83908662980295.8174764413874655.7603726
2980295.9969380213874636.75286472980297.9693750313874621.3319638
2980304.2452811213874606.8073865 2980310.342053713874593.7175177
2980316.9765548613874575.42719992980329.7081566913874550.8609761
2980346.9223611113874523.42599162980363.4193753613874501.5493949
2980392.2890682813874467.47958122980430.5944378713874454.2650407
2980433.35197827 13874453.3135992980464.9208127713874442.6817305
2980467.9598486913874441.65811052980483.3810776913874435.2030709
2980502.2091240313874421.0370888 2980503.558202713874417.8894573
2980509.2022202813874404.71953612980521.7543605313874395.2156181
2980536.63753286 13874386.9672752980544.70674245 13874381.049964
2980562.4590035213874367.06311542980595.4530320313874347.6973404
2980621.63276969 13874336.4004472980653.9096080213874325.8207438
2980685.1103330313874318.82764752980705.7320109513874314.8102671
2980712.7247791113874313.44806512980733.5255905213874308.6065394
2980772.0780068613874287.26799942980809.5549660313874256.4258694
2980813.7291702813874251.85074732980841.2937476913874221.6388655
2980860.1217940313874199.22454032980882.5361192813874178.4237289
2980902.6194124413874166.58910692980926.8270411913874164.2580748
2980974.3453188513874163.72001812981008.0565375213874166.9477019
2981040.8714325313874168.74100542981068.3792515213874167.9450753
2981084.2657026913874167.48575862981129.9910049413874164.0786132
2981146.8466142713874156.00940362981158.6812362813874145.4300284
2981164.9571423513874135.02978682981168.2573326113874127.8034233
 2981175.357712113874112.25653832981189.16477111  13874102.93241
2981219.8277675213874099.88385972981294.7813577813874100.2424548
2981321.8889151113874102.7641033 2981325.623487713874103.1115435
2981342.4790970213874099.70472622981362.3829286113874076.7523443
2981371.5282515313874058.82062162981375.3336901113874052.9220113
2981389.45964611 13874031.0270422981415.2811167813874005.9227615
2981441.8197776113873989.96380392981504.04176603 13873965.038985
2981547.7946312713873939.93503262981593.7413897813873910.4777424
2981599.2581110313873906.94100412981605.1875611113873897.7966654
2981614.1412833613873883.98862222981623.4657397713873871.9745386
2981647.4939069513873856.55330962981661.1218324513873835.5736928
2981675.2878146213873813.51796262981693.0400756913873792.1794226
2981709.1781667813873775.68240832981718.1440281113873764.2063814
2981728.7237313513873748.60569092981753.8276837813873727.8052075
2981764.7620451213873721.1346172 2981778.998565213873709.9971723