Flow Title=Effective Floodway 2019
Program Version=4.10
Number of Profiles= 2 
Profile Names=100YR,FW
River Rch & RM=U106-00-00,U106-00-00_0006 ,34736.9 
     277     277
River Rch & RM=U106-00-00,U106-00-00_0006 ,33978.27
     354     354
River Rch & RM=U106-00-00,U106-00-00_0006 ,33232.65
     445     445
River Rch & RM=U106-00-00,U106-00-00_0006 ,32538.94
     504     504
River Rch & RM=U106-00-00,U106-00-00_0006 ,32158.55
     550     550
River Rch & RM=U106-00-00,U106-00-00_0006 ,31892.18
     670     670
River Rch & RM=U106-00-00,U106-00-00_0006 ,31295.21
     762     762
River Rch & RM=U106-00-00,U106-00-00_0006 ,30906.18
     946     946
River Rch & RM=U106-00-00,U106-00-00_0006 ,30251.07
     950     950
River Rch & RM=U106-00-00,U106-00-00_0006 ,30237.72
     980     980
River Rch & RM=U106-00-00,U106-00-00_0006 ,30145.7 
    1016    1016
River Rch & RM=U106-00-00,U106-00-00_0006 ,29925.7 
    1186    1186
River Rch & RM=U106-00-00,U106-00-00_0006 ,28984.21
    1221    1221
River Rch & RM=U106-00-00,U106-00-00_0006 ,28808.57
    1264    1264
River Rch & RM=U106-00-00,U106-00-00_0006 ,28596.48
    1286    1286
River Rch & RM=U106-00-00,U106-00-00_0006 ,28491.74
    1369    1369
River Rch & RM=U106-00-00,U106-00-00_0006 ,28110.07
    1443    1443
River Rch & RM=U106-00-00,U106-00-00_0006 ,27792.54
    1553    1553
River Rch & RM=U106-00-00,U106-00-00_0006 ,27344.77
    1589    1589
River Rch & RM=U106-00-00,U106-00-00_0006 ,27203.95
    1634    1634
River Rch & RM=U106-00-00,U106-00-00_0006 ,27032.86
    1738    1738
River Rch & RM=U106-00-00,U106-00-00_0006 ,26660.09
    1898    1898
River Rch & RM=U106-00-00,U106-00-00_0006 ,26124.21
    2293    2293
River Rch & RM=U106-00-00,U106-00-00_0006 ,24973.88
    2415    2415
River Rch & RM=U106-00-00,U106-00-00_0006 ,24659.03
    2504    2504
River Rch & RM=U106-00-00,U106-00-00_0006 ,24439.49
    2693    2693
River Rch & RM=U106-00-00,U106-00-00_0006 ,23995.34
    2757    2757
River Rch & RM=U106-00-00,U106-00-00_0006 ,23852.47
    2879    2879
River Rch & RM=U106-00-00,U106-00-00_0006 ,23589.06
    2919    2919
River Rch & RM=U106-00-00,U106-00-00_0006 ,23506.34
    3250    3250
River Rch & RM=U106-00-00,U106-00-00_0006 ,22853.56
    3544    3544
River Rch & RM=U106-00-00,U106-00-00_0006 ,22164.43
    3664    3664
River Rch & RM=U106-00-00,U106-00-00_0006 ,21901.5 
    3965    3965
River Rch & RM=U106-00-00,U106-00-00_0006 ,21273.96
    4111    4111
River Rch & RM=U106-00-00,U106-00-00_0006 ,20985.72
    4497    4497
River Rch & RM=U106-00-00,U106-00-00_0006 ,20274.23
    4712    4712
River Rch & RM=U106-00-00,U106-00-00_0006 ,19902.81
    4821    4821
River Rch & RM=U106-00-00,U106-00-00_0006 ,19722.39
    5033    5033
River Rch & RM=U106-00-00,U106-00-00_0006 ,19379.8 
    5182    5182
River Rch & RM=U106-00-00,U106-00-00_0006 ,19149.03
    5982    5982
River Rch & RM=U106-00-00,U106-00-00_0006 ,18008.87
    6251    6251
River Rch & RM=U106-00-00,U106-00-00_0006 ,17659.51
    6558    6558
River Rch & RM=U106-00-00,U106-00-00_0006 ,15350.12
    6886    6886
River Rch & RM=U106-00-00,U106-00-00_0006 ,13005.42
    7179    7179
River Rch & RM=U106-00-00,U106-00-00_0006 ,11005.42
    7517    7517
River Rch & RM=U106-00-00,U106-00-00_0006 ,8794.251
    7888    7888
River Rch & RM=U106-00-00,U106-00-00_0006 ,6479.06 
    8282    8282
River Rch & RM=U106-00-00,U106-00-00_0006 ,4135.911
    8679    8679
River Rch & RM=U106-00-00,U106-00-00_0006 ,1884.233
    8919    8919
Boundary for River Rch & Prof#=U106-00-00,U106-00-00_0006 , 1 
Up Type= 0 
Dn Type= 3 
Dn Slope=0.0012
Boundary for River Rch & Prof#=U106-00-00,U106-00-00_0006 , 2 
Up Type= 0 
Dn Type= 3 
Dn Slope=0.0012
Observed WS=U106-00-00      ,U106-00-00_0006 ,34736.9 ,0,131.76,133.72
Observed WS=U106-00-00      ,U106-00-00_0006 ,33978.27,0,131.76,133.72
Observed WS=U106-00-00      ,U106-00-00_0006 ,33232.65,0,131.76,133.72
Observed WS=U106-00-00      ,U106-00-00_0006 ,32538.94,0,131.76,133.72
Observed WS=U106-00-00      ,U106-00-00_0006 ,32158.55,0,131.76,133.72
Observed WS=U106-00-00      ,U106-00-00_0006 ,31892.18,0,131.76,133.72
Observed WS=U106-00-00      ,U106-00-00_0006 ,31295.21,0,131.76,133.71
Observed WS=U106-00-00      ,U106-00-00_0006 ,30906.18,0,131.75,133.71
Observed WS=U106-00-00      ,U106-00-00_0006 ,30251.07,0,131.67,133.61
Observed WS=U106-00-00      ,U106-00-00_0006 ,30237.72,0,131.67,133.61
Observed WS=U106-00-00      ,U106-00-00_0006 ,30163.92,0,131.38,132.92
Observed WS=U106-00-00      ,U106-00-00_0006 ,30145.7 ,0,131.36,132.9
Observed WS=U106-00-00      ,U106-00-00_0006 ,29925.7 ,0,131.11,132.61
Observed WS=U106-00-00      ,U106-00-00_0006 ,28984.21,0,130.02,131.46
Observed WS=U106-00-00      ,U106-00-00_0006 ,28885.46,0,129.91,131.34
Observed WS=U106-00-00      ,U106-00-00_0006 ,28808.57,0,129.74,131.17
Observed WS=U106-00-00      ,U106-00-00_0006 ,28676.88,0,129.44,130.89
Observed WS=U106-00-00      ,U106-00-00_0006 ,28596.48,0,129.25,130.71
Observed WS=U106-00-00      ,U106-00-00_0006 ,28491.74,0,129.02,130.48
Observed WS=U106-00-00      ,U106-00-00_0006 ,28110.07,0,128.15,129.65
Observed WS=U106-00-00      ,U106-00-00_0006 ,27792.54,0,127.65,129.23
Observed WS=U106-00-00      ,U106-00-00_0006 ,27664.41,0,126.99,128.42
Observed WS=U106-00-00      ,U106-00-00_0006 ,27344.77,0,126.98,128.41
Observed WS=U106-00-00      ,U106-00-00_0006 ,27238.83,0,126.82,128.27
Observed WS=U106-00-00      ,U106-00-00_0006 ,27203.95,0,126.77,128.23
Observed WS=U106-00-00      ,U106-00-00_0006 ,27108.55,0,126.47,127.95
Observed WS=U106-00-00      ,U106-00-00_0006 ,27032.86,0,126.4,127.89
Observed WS=U106-00-00      ,U106-00-00_0006 ,26660.09,0,126.08,127.62
Observed WS=U106-00-00      ,U106-00-00_0006 ,26124.21,0,125.57,127.2
Observed WS=U106-00-00      ,U106-00-00_0006 ,24973.88,0,124.75,126.65
Observed WS=U106-00-00      ,U106-00-00_0006 ,24659.03,0,124.7,126.61
Observed WS=U106-00-00      ,U106-00-00_0006 ,24544.18,0,124.68,126.59
Observed WS=U106-00-00      ,U106-00-00_0006 ,24439.49,0,124.67,126.58
Observed WS=U106-00-00      ,U106-00-00_0006 ,23995.34,0,124.6,126.52
Observed WS=U106-00-00      ,U106-00-00_0006 ,23852.47,0,124.39,126.29
Observed WS=U106-00-00      ,U106-00-00_0006 ,23788.41,0,124.3,126.19
Observed WS=U106-00-00      ,U106-00-00_0006 ,23712.13,0,124.18,126.07
Observed WS=U106-00-00      ,U106-00-00_0006 ,23589.06,0,124,125.88
Observed WS=U106-00-00      ,U106-00-00_0006 ,23506.34,0,123.88,125.74
Observed WS=U106-00-00      ,U106-00-00_0006 ,22853.56,0,122.92,124.71
Observed WS=U106-00-00      ,U106-00-00_0006 ,22164.43,0,121.63,123.62
Observed WS=U106-00-00      ,U106-00-00_0006 ,22005.4 ,0,120.97,123.03
Observed WS=U106-00-00      ,U106-00-00_0006 ,21941.71,0,120.39,122.6
Observed WS=U106-00-00      ,U106-00-00_0006 ,21939.22,0,120.38,122.59
Observed WS=U106-00-00      ,U106-00-00_0006 ,21928.05,0,120.35,122.57
Observed WS=U106-00-00      ,U106-00-00_0006 ,21901.5 ,0,120.26,122.5
Observed WS=U106-00-00      ,U106-00-00_0006 ,21273.96,0,118.3,120.97
Observed WS=U106-00-00      ,U106-00-00_0006 ,20985.72,0,118.07,120.81
Observed WS=U106-00-00      ,U106-00-00_0006 ,20274.23,0,117.61,120.46
Observed WS=U106-00-00      ,U106-00-00_0006 ,20114.5 ,0,117.44,120.3
Observed WS=U106-00-00      ,U106-00-00_0006 ,20066.32,0,117.31,120.18
Observed WS=U106-00-00      ,U106-00-00_0006 ,19978.63,0,117.23,120.11
Observed WS=U106-00-00      ,U106-00-00_0006 ,19902.81,0,117.16,120.05
Observed WS=U106-00-00      ,U106-00-00_0006 ,19722.39,0,117,119.9
Observed WS=U106-00-00      ,U106-00-00_0006 ,19379.8 ,0,116.7,119.63
Observed WS=U106-00-00      ,U106-00-00_0006 ,19149.03,0,116.49,119.45
Observed WS=U106-00-00      ,U106-00-00_0006 ,18008.87,0,115.79,118.85
Observed WS=U106-00-00      ,U106-00-00_0006 ,17829.24,0,115.59,118.65
Observed WS=U106-00-00      ,U106-00-00_0006 ,17815.82,0,115.57,118.63
Observed WS=U106-00-00      ,U106-00-00_0006 ,17675.65,0,115.28,118.36
Observed WS=U106-00-00      ,U106-00-00_0006 ,17659.51,0,115.27,118.35
Observed WS=U106-00-00      ,U106-00-00_0006 ,17099   ,0,114.82,117.96
Observed WS=U106-00-00      ,U106-00-00_0006 ,16293.39,0,114.28,117.49
Observed WS=U106-00-00      ,U106-00-00_0006 ,15604.09,0,113.35,116.86
Observed WS=U106-00-00      ,U106-00-00_0006 ,15471.62,0,113.29,116.81
Observed WS=U106-00-00      ,U106-00-00_0006 ,15434.33,0,113.27,116.8
Observed WS=U106-00-00      ,U106-00-00_0006 ,15350.12,0,113.23,116.77
Observed WS=U106-00-00      ,U106-00-00_0006 ,15320.28,0,113.05,116.51
Observed WS=U106-00-00      ,U106-00-00_0006 ,14811.87,0,112.59,116.08
Observed WS=U106-00-00      ,U106-00-00_0006 ,14194.91,0,112.08,115.63
Observed WS=U106-00-00      ,U106-00-00_0006 ,14061.19,0,111.97,115.54
Observed WS=U106-00-00      ,U106-00-00_0006 ,14003.57,0,111.72,114.86
Observed WS=U106-00-00      ,U106-00-00_0006 ,13646.79,0,111.51,114.67
Observed WS=U106-00-00      ,U106-00-00_0006 ,13005.42,0,111.15,114.35
Observed WS=U106-00-00      ,U106-00-00_0006 ,12230.04,0,110.6,113.88
Observed WS=U106-00-00      ,U106-00-00_0006 ,11675.06,0,109.81,113.11
Observed WS=U106-00-00      ,U106-00-00_0006 ,11568.75,0,109.72,113.02
Observed WS=U106-00-00      ,U106-00-00_0006 ,11515.39,0,109.45,112.53
Observed WS=U106-00-00      ,U106-00-00_0006 ,11005.42,0,109.33,112.44
Observed WS=U106-00-00      ,U106-00-00_0006 ,10050.94,0,108.89,111.94
Observed WS=U106-00-00      ,U106-00-00_0006 ,10025.62,0,108.87,111.91
Observed WS=U106-00-00      ,U106-00-00_0006 ,10009.41,0,108.86,111.9
Observed WS=U106-00-00      ,U106-00-00_0006 ,9878.908,0,108.67,111.64
Observed WS=U106-00-00      ,U106-00-00_0006 ,9856.587,0,108.69,111.7
Observed WS=U106-00-00      ,U106-00-00_0006 ,9832.995,0,108.66,111.66
Observed WS=U106-00-00      ,U106-00-00_0006 ,9619.335,0,108.29,111.22
Observed WS=U106-00-00      ,U106-00-00_0006 ,9578.745,0,108.26,111.19
Observed WS=U106-00-00      ,U106-00-00_0006 ,8794.251,0,107.71,110.61
Observed WS=U106-00-00      ,U106-00-00_0006 ,8163.752,0,107.11,109.92
Observed WS=U106-00-00      ,U106-00-00_0006 ,7905.084,0,106.98,109.78
Observed WS=U106-00-00      ,U106-00-00_0006 ,7388.485,0,106.73,109.49
Observed WS=U106-00-00      ,U106-00-00_0006 ,7093.843,0,106.51,109.18
Observed WS=U106-00-00      ,U106-00-00_0006 ,6479.06 ,0,106.15,108.82
Observed WS=U106-00-00      ,U106-00-00_0006 ,5787.579,0,105.64,108.34
Observed WS=U106-00-00      ,U106-00-00_0006 ,5054.988,0,105.02,107.69
Observed WS=U106-00-00      ,U106-00-00_0006 ,4135.911,0,104.34,107
Observed WS=U106-00-00      ,U106-00-00_0006 ,3194.384,0,103.71,106.33
Observed WS=U106-00-00      ,U106-00-00_0006 ,3027.574,0,103.58,106.19
Observed WS=U106-00-00      ,U106-00-00_0006 ,2904.468,0,103.35,105.83
Observed WS=U106-00-00      ,U106-00-00_0006 ,2393.094,0,102.88,105.32
Observed WS=U106-00-00      ,U106-00-00_0006 ,1884.233,0,102.55,104.97
Observed WS=U106-00-00      ,U106-00-00_0006 ,1354.328,0,102.02,104.38
Observed WS=U106-00-00      ,U106-00-00_0006 ,1154.309,0,101.79,104.12
Observed WS=U106-00-00      ,U106-00-00_0006 ,1145.811,0,101.78,104.11
Observed WS=U106-00-00      ,U106-00-00_0006 ,575.5177,0,101.15,103.46
DSS Import StartDate=
DSS Import StartTime=
DSS Import EndDate=
DSS Import EndTime=
DSS Import GetInterval= 0 
DSS Import Interval=
DSS Import GetPeak= 0 
DSS Import FillOption= 0 
