Flow Title=Effective Multi-Profile 2019
Program Version=4.10
Number of Profiles= 4 
Profile Names=10YR,50YR,100YR,500YR
River Rch & RM=U106-00-00,U106-00-00_0006 ,34736.9 
     237     264     277     548
River Rch & RM=U106-00-00,U106-00-00_0006 ,33978.27
     277     329     354     661
River Rch & RM=U106-00-00,U106-00-00_0006 ,33232.65
     320     403     445     787
River Rch & RM=U106-00-00,U106-00-00_0006 ,32538.94
     347     451     504     866
River Rch & RM=U106-00-00,U106-00-00_0006 ,32158.55
     367     488     550     926
River Rch & RM=U106-00-00,U106-00-00_0006 ,31892.18
     416     583     670    1076
River Rch & RM=U106-00-00,U106-00-00_0006 ,31295.21
     451     653     762    1187
River Rch & RM=U106-00-00,U106-00-00_0006 ,30906.18
     518     793     946    1399
River Rch & RM=U106-00-00,U106-00-00_0006 ,30251.07
     520     796     950    1404
River Rch & RM=U106-00-00,U106-00-00_0006 ,30237.72
     530     818     980    1437
River Rch & RM=U106-00-00,U106-00-00_0006 ,30145.7 
     548     848    1016    1490
River Rch & RM=U106-00-00,U106-00-00_0006 ,29925.7 
     636     989    1186    1742
River Rch & RM=U106-00-00,U106-00-00_0006 ,28984.21
     653    1018    1221    1794
River Rch & RM=U106-00-00,U106-00-00_0006 ,28808.57
     675    1054    1264    1858
River Rch & RM=U106-00-00,U106-00-00_0006 ,28596.48
     687    1072    1286    1890
River Rch & RM=U106-00-00,U106-00-00_0006 ,28491.74
     729    1141    1369    2014
River Rch & RM=U106-00-00,U106-00-00_0006 ,28110.07
     766    1202    1443    2123
River Rch & RM=U106-00-00,U106-00-00_0006 ,27792.54
     822    1293    1553    2286
River Rch & RM=U106-00-00,U106-00-00_0006 ,27344.77
     840    1323    1589    2341
River Rch & RM=U106-00-00,U106-00-00_0006 ,27203.95
     863    1361    1634    2408
River Rch & RM=U106-00-00,U106-00-00_0006 ,27032.86
     915    1446    1738    2562
River Rch & RM=U106-00-00,U106-00-00_0006 ,26660.09
     996    1579    1898    2800
River Rch & RM=U106-00-00,U106-00-00_0006 ,26124.21
    1192    1906    2293    3388
River Rch & RM=U106-00-00,U106-00-00_0006 ,24973.88
    1253    2006    2415    3570
River Rch & RM=U106-00-00,U106-00-00_0006 ,24659.03
    1297    2080    2504    3702
River Rch & RM=U106-00-00,U106-00-00_0006 ,24439.49
    1390    2236    2693    3986
River Rch & RM=U106-00-00,U106-00-00_0006 ,23995.34
    1422    2289    2757    4081
River Rch & RM=U106-00-00,U106-00-00_0006 ,23852.47
    1482    2390    2879    4264
River Rch & RM=U106-00-00,U106-00-00_0006 ,23589.06
    1501    2422    2919    4322
River Rch & RM=U106-00-00,U106-00-00_0006 ,23506.34
    1663    2695    3250    4817
River Rch & RM=U106-00-00,U106-00-00_0006 ,22853.56
    1819    2940    3544    5250
River Rch & RM=U106-00-00,U106-00-00_0006 ,22164.43
    1882    3040    3664    5426
River Rch & RM=U106-00-00,U106-00-00_0006 ,21901.5 
    2041    3290    3965    5869
River Rch & RM=U106-00-00,U106-00-00_0006 ,21273.96
    2119    3412    4111    6085
River Rch & RM=U106-00-00,U106-00-00_0006 ,20985.72
    2323    3733    4497    6651
River Rch & RM=U106-00-00,U106-00-00_0006 ,20274.23
    2438    3913    4712    6967
River Rch & RM=U106-00-00,U106-00-00_0006 ,19902.81
    2496    4003    4821    7126
River Rch & RM=U106-00-00,U106-00-00_0006 ,19722.39
    2609    4180    5033    7438
River Rch & RM=U106-00-00,U106-00-00_0006 ,19379.8 
    2688    4303    5182    7656
River Rch & RM=U106-00-00,U106-00-00_0006 ,19149.03
    3117    4970    5982    8830
River Rch & RM=U106-00-00,U106-00-00_0006 ,18008.87
    3261    5194    6251    9224
River Rch & RM=U106-00-00,U106-00-00_0006 ,17659.51
    3417    5456    6558    9635
River Rch & RM=U106-00-00,U106-00-00_0006 ,15350.12
    3584    5737    6886   10072
River Rch & RM=U106-00-00,U106-00-00_0006 ,13005.42
    3732    5987    7179   10459
River Rch & RM=U106-00-00,U106-00-00_0006 ,11005.42
    3903    6276    7517   10906
River Rch & RM=U106-00-00,U106-00-00_0006 ,8794.251
    4090    6594    7888   11393
River Rch & RM=U106-00-00,U106-00-00_0006 ,6479.06 
    4289    6932    8282   11909
River Rch & RM=U106-00-00,U106-00-00_0006 ,4135.911
    4490    7274    8679   12426
River Rch & RM=U106-00-00,U106-00-00_0006 ,1884.233
    4610    7480    8919   12737
Boundary for River Rch & Prof#=U106-00-00,U106-00-00_0006 , 1 
Up Type= 0 
Dn Type= 3 
Dn Slope=0.0012
Boundary for River Rch & Prof#=U106-00-00,U106-00-00_0006 , 2 
Up Type= 0 
Dn Type= 3 
Dn Slope=0.0012
Boundary for River Rch & Prof#=U106-00-00,U106-00-00_0006 , 3 
Up Type= 0 
Dn Type= 3 
Dn Slope=0.0012
Boundary for River Rch & Prof#=U106-00-00,U106-00-00_0006 , 4 
Up Type= 0 
Dn Type= 3 
Dn Slope=0.0012
Observed WS=U106-00-00      ,U106-00-00_0006 ,34736.9 ,0,131.76,133.72,134.77,135.73
Observed WS=U106-00-00      ,U106-00-00_0006 ,33978.27,0,131.76,133.72,134.77,135.73
Observed WS=U106-00-00      ,U106-00-00_0006 ,33232.65,0,131.76,133.72,134.77,135.73
Observed WS=U106-00-00      ,U106-00-00_0006 ,32538.94,0,131.76,133.72,134.77,135.73
Observed WS=U106-00-00      ,U106-00-00_0006 ,32158.55,0,131.76,133.72,134.77,135.73
Observed WS=U106-00-00      ,U106-00-00_0006 ,31892.18,0,131.76,133.72,134.77,135.73
Observed WS=U106-00-00      ,U106-00-00_0006 ,31295.21,0,131.76,133.71,134.77,135.72
Observed WS=U106-00-00      ,U106-00-00_0006 ,30906.18,0,131.75,133.71,134.77,135.72
Observed WS=U106-00-00      ,U106-00-00_0006 ,30251.07,0,131.67,133.61,134.66,135.7
Observed WS=U106-00-00      ,U106-00-00_0006 ,30237.72,0,131.67,133.61,134.66,135.7
Observed WS=U106-00-00      ,U106-00-00_0006 ,30163.92,0,131.38,132.92,133.62,135.16
Observed WS=U106-00-00      ,U106-00-00_0006 ,30145.7 ,0,131.36,132.9,133.59,135.14
Observed WS=U106-00-00      ,U106-00-00_0006 ,29925.7 ,0,131.11,132.61,133.29,134.86
Observed WS=U106-00-00      ,U106-00-00_0006 ,28984.21,0,130.02,131.46,132.12,133.67
Observed WS=U106-00-00      ,U106-00-00_0006 ,28885.46,0,129.91,131.34,132,133.55
Observed WS=U106-00-00      ,U106-00-00_0006 ,28808.57,0,129.74,131.17,131.84,133.38
Observed WS=U106-00-00      ,U106-00-00_0006 ,28676.88,0,129.44,130.89,131.57,133.08
Observed WS=U106-00-00      ,U106-00-00_0006 ,28596.48,0,129.25,130.71,131.4,132.91
Observed WS=U106-00-00      ,U106-00-00_0006 ,28491.74,0,129.02,130.48,131.18,132.67
Observed WS=U106-00-00      ,U106-00-00_0006 ,28110.07,0,128.15,129.65,130.39,131.82
Observed WS=U106-00-00      ,U106-00-00_0006 ,27792.54,0,127.65,129.23,130.02,131.44
Observed WS=U106-00-00      ,U106-00-00_0006 ,27664.41,0,126.99,128.42,129.12,130.96
Observed WS=U106-00-00      ,U106-00-00_0006 ,27344.77,0,126.98,128.41,129.11,130.95
Observed WS=U106-00-00      ,U106-00-00_0006 ,27238.83,0,126.82,128.27,128.99,130.84
Observed WS=U106-00-00      ,U106-00-00_0006 ,27203.95,0,126.77,128.23,128.95,130.81
Observed WS=U106-00-00      ,U106-00-00_0006 ,27108.55,0,126.47,127.95,128.68,130.58
Observed WS=U106-00-00      ,U106-00-00_0006 ,27032.86,0,126.4,127.89,128.63,130.54
Observed WS=U106-00-00      ,U106-00-00_0006 ,26660.09,0,126.08,127.62,128.37,130.33
Observed WS=U106-00-00      ,U106-00-00_0006 ,26124.21,0,125.57,127.2,127.99,130.01
Observed WS=U106-00-00      ,U106-00-00_0006 ,24973.88,0,124.75,126.65,127.5,129.61
Observed WS=U106-00-00      ,U106-00-00_0006 ,24659.03,0,124.7,126.61,127.46,129.58
Observed WS=U106-00-00      ,U106-00-00_0006 ,24544.18,0,124.68,126.59,127.44,129.57
Observed WS=U106-00-00      ,U106-00-00_0006 ,24439.49,0,124.67,126.58,127.43,129.56
Observed WS=U106-00-00      ,U106-00-00_0006 ,23995.34,0,124.6,126.52,127.37,129.51
Observed WS=U106-00-00      ,U106-00-00_0006 ,23852.47,0,124.39,126.29,127.14,129.27
Observed WS=U106-00-00      ,U106-00-00_0006 ,23788.41,0,124.3,126.19,127.04,129.16
Observed WS=U106-00-00      ,U106-00-00_0006 ,23712.13,0,124.18,126.07,126.91,129.03
Observed WS=U106-00-00      ,U106-00-00_0006 ,23589.06,0,124,125.88,126.72,128.82
Observed WS=U106-00-00      ,U106-00-00_0006 ,23506.34,0,123.88,125.74,126.58,128.68
Observed WS=U106-00-00      ,U106-00-00_0006 ,22853.56,0,122.92,124.71,125.53,127.57
Observed WS=U106-00-00      ,U106-00-00_0006 ,22164.43,0,121.63,123.62,124.59,126.79
Observed WS=U106-00-00      ,U106-00-00_0006 ,22005.4 ,0,120.97,123.03,124.07,126.3
Observed WS=U106-00-00      ,U106-00-00_0006 ,21941.71,0,120.39,122.6,123.71,126.11
Observed WS=U106-00-00      ,U106-00-00_0006 ,21939.22,0,120.38,122.59,123.7,126.1
Observed WS=U106-00-00      ,U106-00-00_0006 ,21928.05,0,120.35,122.57,123.68,126.08
Observed WS=U106-00-00      ,U106-00-00_0006 ,21901.5 ,0,120.26,122.5,123.62,126.02
Observed WS=U106-00-00      ,U106-00-00_0006 ,21273.96,0,118.3,120.97,122.27,124.65
Observed WS=U106-00-00      ,U106-00-00_0006 ,20985.72,0,118.07,120.81,122.14,124.46
Observed WS=U106-00-00      ,U106-00-00_0006 ,20274.23,0,117.61,120.46,121.84,124.18
Observed WS=U106-00-00      ,U106-00-00_0006 ,20114.5 ,0,117.44,120.3,121.7,124.07
Observed WS=U106-00-00      ,U106-00-00_0006 ,20066.32,0,117.31,120.18,121.39,123.99
Observed WS=U106-00-00      ,U106-00-00_0006 ,19978.63,0,117.23,120.11,121.32,123.91
Observed WS=U106-00-00      ,U106-00-00_0006 ,19902.81,0,117.16,120.05,121.26,123.84
Observed WS=U106-00-00      ,U106-00-00_0006 ,19722.39,0,117,119.9,121.12,123.68
Observed WS=U106-00-00      ,U106-00-00_0006 ,19379.8 ,0,116.7,119.63,120.85,123.37
Observed WS=U106-00-00      ,U106-00-00_0006 ,19149.03,0,116.49,119.45,120.68,123.18
Observed WS=U106-00-00      ,U106-00-00_0006 ,18008.87,0,115.79,118.85,120.12,122.69
Observed WS=U106-00-00      ,U106-00-00_0006 ,17829.24,0,115.59,118.65,119.91,122.55
Observed WS=U106-00-00      ,U106-00-00_0006 ,17815.82,0,115.57,118.63,119.89,122.54
Observed WS=U106-00-00      ,U106-00-00_0006 ,17675.65,0,115.28,118.36,119.62,121.82
Observed WS=U106-00-00      ,U106-00-00_0006 ,17659.51,0,115.27,118.35,119.61,121.81
Observed WS=U106-00-00      ,U106-00-00_0006 ,17099   ,0,114.82,117.96,119.24,121.31
Observed WS=U106-00-00      ,U106-00-00_0006 ,16293.39,0,114.28,117.49,118.78,120.72
Observed WS=U106-00-00      ,U106-00-00_0006 ,15604.09,0,113.35,116.86,118.21,120.19
Observed WS=U106-00-00      ,U106-00-00_0006 ,15471.62,0,113.29,116.81,118.17,120.14
Observed WS=U106-00-00      ,U106-00-00_0006 ,15434.33,0,113.27,116.8,118.16,120.13
Observed WS=U106-00-00      ,U106-00-00_0006 ,15350.12,0,113.23,116.77,118.14,120.1
Observed WS=U106-00-00      ,U106-00-00_0006 ,15320.28,0,113.05,116.51,117.72,119.86
Observed WS=U106-00-00      ,U106-00-00_0006 ,14811.87,0,112.59,116.08,117.31,119.57
Observed WS=U106-00-00      ,U106-00-00_0006 ,14194.91,0,112.08,115.63,116.89,119.03
Observed WS=U106-00-00      ,U106-00-00_0006 ,14061.19,0,111.97,115.54,116.83,119.03
Observed WS=U106-00-00      ,U106-00-00_0006 ,14003.57,0,111.72,114.86,116.26,119.03
Observed WS=U106-00-00      ,U106-00-00_0006 ,13646.79,0,111.51,114.67,116.09,118.88
Observed WS=U106-00-00      ,U106-00-00_0006 ,13005.42,0,111.15,114.35,115.81,118.74
Observed WS=U106-00-00      ,U106-00-00_0006 ,12230.04,0,110.6,113.88,115.38,118.38
Observed WS=U106-00-00      ,U106-00-00_0006 ,11675.06,0,109.81,113.11,114.66,117.64
Observed WS=U106-00-00      ,U106-00-00_0006 ,11568.75,0,109.72,113.02,114.58,117.6
Observed WS=U106-00-00      ,U106-00-00_0006 ,11515.39,0,109.45,112.53,113.77,116.65
Observed WS=U106-00-00      ,U106-00-00_0006 ,11005.42,0,109.33,112.44,113.7,116.57
Observed WS=U106-00-00      ,U106-00-00_0006 ,10050.94,0,108.89,111.94,113.19,115.95
Observed WS=U106-00-00      ,U106-00-00_0006 ,10025.62,0,108.87,111.91,113.16,115.91
Observed WS=U106-00-00      ,U106-00-00_0006 ,10009.41,0,108.86,111.9,113.15,115.88
Observed WS=U106-00-00      ,U106-00-00_0006 ,9878.908,0,108.67,111.64,112.88,115.55
Observed WS=U106-00-00      ,U106-00-00_0006 ,9856.587,0,108.69,111.7,112.95,115.69
Observed WS=U106-00-00      ,U106-00-00_0006 ,9832.995,0,108.66,111.66,112.9,115.63
Observed WS=U106-00-00      ,U106-00-00_0006 ,9619.335,0,108.29,111.22,112.42,115.14
Observed WS=U106-00-00      ,U106-00-00_0006 ,9578.745,0,108.26,111.19,112.39,115.11
Observed WS=U106-00-00      ,U106-00-00_0006 ,8794.251,0,107.71,110.61,111.8,114.57
Observed WS=U106-00-00      ,U106-00-00_0006 ,8163.752,0,107.11,109.92,111.08,113.95
Observed WS=U106-00-00      ,U106-00-00_0006 ,7905.084,0,106.98,109.78,110.93,113.75
Observed WS=U106-00-00      ,U106-00-00_0006 ,7388.485,0,106.73,109.49,110.63,113.35
Observed WS=U106-00-00      ,U106-00-00_0006 ,7093.843,0,106.51,109.18,110.29,112.89
Observed WS=U106-00-00      ,U106-00-00_0006 ,6479.06 ,0,106.15,108.82,109.95,112.66
Observed WS=U106-00-00      ,U106-00-00_0006 ,5787.579,0,105.64,108.34,109.52,112.36
Observed WS=U106-00-00      ,U106-00-00_0006 ,5054.988,0,105.02,107.69,108.87,111.72
Observed WS=U106-00-00      ,U106-00-00_0006 ,4135.911,0,104.34,107,108.23,111.45
Observed WS=U106-00-00      ,U106-00-00_0006 ,3194.384,0,103.71,106.33,107.6,110.76
Observed WS=U106-00-00      ,U106-00-00_0006 ,3027.574,0,103.58,106.19,107.46,110.61
Observed WS=U106-00-00      ,U106-00-00_0006 ,2904.468,0,103.35,105.83,106.82,109.13
Observed WS=U106-00-00      ,U106-00-00_0006 ,2393.094,0,102.88,105.32,106.33,108.82
Observed WS=U106-00-00      ,U106-00-00_0006 ,1884.233,0,102.55,104.97,105.98,108.36
Observed WS=U106-00-00      ,U106-00-00_0006 ,1354.328,0,102.02,104.38,105.37,107.71
Observed WS=U106-00-00      ,U106-00-00_0006 ,1154.309,0,101.79,104.12,105.1,107.39
Observed WS=U106-00-00      ,U106-00-00_0006 ,1145.811,0,101.78,104.11,105.09,107.38
Observed WS=U106-00-00      ,U106-00-00_0006 ,575.5177,0,101.15,103.46,104.45,106.73
DSS Import StartDate=
DSS Import StartTime=
DSS Import EndDate=
DSS Import EndTime=
DSS Import GetInterval= 0 
DSS Import Interval=
DSS Import GetPeak= 0 
DSS Import FillOption= 0 
