Flow Title=Effective Floodway 2019 (Re-Study)
Program Version=4.10
Number of Profiles= 2 
Profile Names=100YR,FW
River Rch & RM=U101-08-00,U101-08-00_0002 ,11155.58
     207     207
River Rch & RM=U101-08-00,U101-08-00_0002 ,11053.56
     218     218
River Rch & RM=U101-08-00,U101-08-00_0002 ,10653.05
     227     227
River Rch & RM=U101-08-00,U101-08-00_0002 ,10351.71
     237     237
River Rch & RM=U101-08-00,U101-08-00_0002 ,10051.85
     243     243
River Rch & RM=U101-08-00,U101-08-00_0002 ,9850.69 
     262     262
River Rch & RM=U101-08-00,U101-08-00_0002 ,9295.705
     277     277
River Rch & RM=U101-08-00,U101-08-00_0002 ,8895.74 
     285     285
River Rch & RM=U101-08-00,U101-08-00_0002 ,8688.143
     293     293
River Rch & RM=U101-08-00,U101-08-00_0002 ,8485.234
     301     301
River Rch & RM=U101-08-00,U101-08-00_0002 ,8287.832
     309     309
River Rch & RM=U101-08-00,U101-08-00_0002 ,8092.732
     317     317
River Rch & RM=U101-08-00,U101-08-00_0002 ,7901.195
     325     325
River Rch & RM=U101-08-00,U101-08-00_0002 ,7704.322
     336     336
River Rch & RM=U101-08-00,U101-08-00_0002 ,7456.862
     344     344
River Rch & RM=U101-08-00,U101-08-00_0002 ,7295.447
     381     381
River Rch & RM=U101-08-00,U101-08-00_0002 ,6523.721
     426     426
River Rch & RM=U101-08-00,U101-08-00_0002 ,5714.47 
     450     450
River Rch & RM=U101-08-00,U101-08-00_0002 ,5309.224
     464     464
River Rch & RM=U101-08-00,U101-08-00_0002 ,5073.266
     465     465
River Rch & RM=U101-08-00,U101-08-00_0002 ,5058.191
     684     684
River Rch & RM=U101-08-00,U101-08-00_0002 ,4890.756
     685     685
River Rch & RM=U101-08-00,U101-08-00_0002 ,4872.718
     734     734
River Rch & RM=U101-08-00,U101-08-00_0002 ,4122.137
     782     782
River Rch & RM=U101-08-00,U101-08-00_0002 ,3440.281
     783     783
River Rch & RM=U101-08-00,U101-08-00_0002 ,3430.281
     703     703
River Rch & RM=U101-08-00,U101-08-00_0002 ,3335.073
     716     716
River Rch & RM=U101-08-00,U101-08-00_0002 ,3046.937
     745     745
River Rch & RM=U101-08-00,U101-08-00_0002 ,2455.761
     768     768
River Rch & RM=U101-08-00,U101-08-00_0002 ,2017.84 
     796     796
River Rch & RM=U101-08-00,U101-08-00_0002 ,1478.421
     828     828
River Rch & RM=U101-08-00,U101-08-00_0002 ,890.525 
     849     849
River Rch & RM=U101-08-00,U101-08-00_0002 ,521.9677
     870     870
Boundary for River Rch & Prof#=U101-08-00,U101-08-00_0002 , 1 
Up Type= 0 
Dn Type= 3 
Dn Slope=0.00066
Boundary for River Rch & Prof#=U101-08-00,U101-08-00_0002 , 2 
Up Type= 0 
Dn Type= 3 
Dn Slope=0.00066
Observed WS=U101-08-00      ,U101-08-00_0002 ,11155.58,0,132.36,134.42
Observed WS=U101-08-00      ,U101-08-00_0002 ,11053.56,0,132.36,134.42
Observed WS=U101-08-00      ,U101-08-00_0002 ,10653.05,0,132.32,134.4
Observed WS=U101-08-00      ,U101-08-00_0002 ,10351.71,0,132.29,134.38
Observed WS=U101-08-00      ,U101-08-00_0002 ,10051.85,0,132.26,134.37
Observed WS=U101-08-00      ,U101-08-00_0002 ,9850.69 ,0,132.25,134.36
Observed WS=U101-08-00      ,U101-08-00_0002 ,9295.705,0,132.22,134.34
Observed WS=U101-08-00      ,U101-08-00_0002 ,8895.74 ,0,132.2,134.33
Observed WS=U101-08-00      ,U101-08-00_0002 ,8688.143,0,132.19,134.33
Observed WS=U101-08-00      ,U101-08-00_0002 ,8485.234,0,132.18,134.32
Observed WS=U101-08-00      ,U101-08-00_0002 ,8287.832,0,132.18,134.32
Observed WS=U101-08-00      ,U101-08-00_0002 ,8092.732,0,132.17,134.31
Observed WS=U101-08-00      ,U101-08-00_0002 ,7901.195,0,132.16,134.31
Observed WS=U101-08-00      ,U101-08-00_0002 ,7750.004,0,131.91,133.81
Observed WS=U101-08-00      ,U101-08-00_0002 ,7691.996,0,131.9,133.81
Observed WS=U101-08-00      ,U101-08-00_0002 ,7607.596,0,131.9,133.81
Observed WS=U101-08-00      ,U101-08-00_0002 ,7589.07 ,0,131.9,133.8
Observed WS=U101-08-00      ,U101-08-00_0002 ,7525.309,0,131.34,132.84
Observed WS=U101-08-00      ,U101-08-00_0002 ,7456.862,0,131.32,132.83
Observed WS=U101-08-00      ,U101-08-00_0002 ,7295.447,0,131.29,132.8
Observed WS=U101-08-00      ,U101-08-00_0002 ,6523.721,0,131.11,132.67
Observed WS=U101-08-00      ,U101-08-00_0002 ,5714.47 ,0,130.94,132.55
Observed WS=U101-08-00      ,U101-08-00_0002 ,5309.224,0,130.88,132.5
Observed WS=U101-08-00      ,U101-08-00_0002 ,4890.756,0,130.77,132.41
Observed WS=U101-08-00      ,U101-08-00_0002 ,4872.718,0,130.76,132.4
Observed WS=U101-08-00      ,U101-08-00_0002 ,4122.137,0,130.51,132.21
Observed WS=U101-08-00      ,U101-08-00_0002 ,3440.281,0,130.37,132.12
Observed WS=U101-08-00      ,U101-08-00_0002 ,3176.741,0,130.33,132.09
Observed WS=U101-08-00      ,U101-08-00_0002 ,3159.739,0,130.33,132.09
Observed WS=U101-08-00      ,U101-08-00_0002 ,3101.097,0,129.32,130.62
Observed WS=U101-08-00      ,U101-08-00_0002 ,3046.937,0,129.28,130.6
Observed WS=U101-08-00      ,U101-08-00_0002 ,2535.291,0,129.13,130.5
Observed WS=U101-08-00      ,U101-08-00_0002 ,2455.761,0,129.11,130.48
Observed WS=U101-08-00      ,U101-08-00_0002 ,2335.474,0,127.41,128.51
Observed WS=U101-08-00      ,U101-08-00_0002 ,2330.317,0,127.37,128.48
Observed WS=U101-08-00      ,U101-08-00_0002 ,2017.84 ,0,126.93,128.24
Observed WS=U101-08-00      ,U101-08-00_0002 ,1526.611,0,126.45,127.95
Observed WS=U101-08-00      ,U101-08-00_0002 ,1478.421,0,126.42,127.93
Observed WS=U101-08-00      ,U101-08-00_0002 ,1287.94 ,0,125.05,125.61
Observed WS=U101-08-00      ,U101-08-00_0002 ,1278.983,0,125.02,125.59
Observed WS=U101-08-00      ,U101-08-00_0002 ,1098.127,0,124.57,125.12
Observed WS=U101-08-00      ,U101-08-00_0002 ,890.525 ,0,124.07,124.61
Observed WS=U101-08-00      ,U101-08-00_0002 ,688.6711,0,123.52,124.02
Observed WS=U101-08-00      ,U101-08-00_0002 ,533.9202,0,121.51,121.91
Observed WS=U101-08-00      ,U101-08-00_0002 ,521.9677,0,120.93,121.74
Observed WS=U101-08-00      ,U101-08-00_0002 ,161.0575,0,120.72,121.55
DSS Import StartDate=
DSS Import StartTime=
DSS Import EndDate=
DSS Import EndTime=
DSS Import GetInterval= 0 
DSS Import Interval=
DSS Import GetPeak= 0 
DSS Import FillOption= 0 
