Flow Title=Effective Multi-Profile 2019 (Re-Study)
Program Version=4.10
Number of Profiles= 4 
Profile Names=10YR,50YR,100YR,500YR
River Rch & RM=U101-08-00,U101-08-00_0002 ,11155.58
     108     118     207     430
River Rch & RM=U101-08-00,U101-08-00_0002 ,11053.56
     114     128     218     444
River Rch & RM=U101-08-00,U101-08-00_0002 ,10653.05
     119     136     227     455
River Rch & RM=U101-08-00,U101-08-00_0002 ,10351.71
     125     145     237     467
River Rch & RM=U101-08-00,U101-08-00_0002 ,10051.85
     128     151     243     474
River Rch & RM=U101-08-00,U101-08-00_0002 ,9850.69 
     139     168     262     496
River Rch & RM=U101-08-00,U101-08-00_0002 ,9295.705
     147     182     277     512
River Rch & RM=U101-08-00,U101-08-00_0002 ,8895.74 
     152     190     285     521
River Rch & RM=U101-08-00,U101-08-00_0002 ,8688.143
     156     198     293     530
River Rch & RM=U101-08-00,U101-08-00_0002 ,8485.234
     161     206     301     538
River Rch & RM=U101-08-00,U101-08-00_0002 ,8287.832
     165     214     309     547
River Rch & RM=U101-08-00,U101-08-00_0002 ,8092.732
     170     223     317     556
River Rch & RM=U101-08-00,U101-08-00_0002 ,7901.195
     175     232     325     564
River Rch & RM=U101-08-00,U101-08-00_0002 ,7704.322
     181     243     336     576
River Rch & RM=U101-08-00,U101-08-00_0002 ,7456.862
     185     251     344     583
River Rch & RM=U101-08-00,U101-08-00_0002 ,7295.447
     207     293     381     621
River Rch & RM=U101-08-00,U101-08-00_0002 ,6523.721
     232     345     426     663
River Rch & RM=U101-08-00,U101-08-00_0002 ,5714.47 
     246     374     450     685
River Rch & RM=U101-08-00,U101-08-00_0002 ,5309.224
     254     392     464     699
River Rch & RM=U101-08-00,U101-08-00_0002 ,5073.266
     255     393     465     700
River Rch & RM=U101-08-00,U101-08-00_0002 ,5058.191
     344     578     684     987
River Rch & RM=U101-08-00,U101-08-00_0002 ,4890.756
     345     579     685     989
River Rch & RM=U101-08-00,U101-08-00_0002 ,4872.718
     369     614     734    1066
River Rch & RM=U101-08-00,U101-08-00_0002 ,4122.137
     392     647     782    1140
River Rch & RM=U101-08-00,U101-08-00_0002 ,3440.281
     393     648     783    1141
River Rch & RM=U101-08-00,U101-08-00_0002 ,3430.281
     384     571     703    1083
River Rch & RM=U101-08-00,U101-08-00_0002 ,3335.073
     391     584     716    1105
River Rch & RM=U101-08-00,U101-08-00_0002 ,3046.937
     407     610     745    1152
River Rch & RM=U101-08-00,U101-08-00_0002 ,2455.761
     419     630     768    1188
River Rch & RM=U101-08-00,U101-08-00_0002 ,2017.84 
     435     656     796    1234
River Rch & RM=U101-08-00,U101-08-00_0002 ,1478.421
     453     685     828    1285
River Rch & RM=U101-08-00,U101-08-00_0002 ,890.525 
     464     705     849    1319
River Rch & RM=U101-08-00,U101-08-00_0002 ,521.9677
     476     724     870    1353
Boundary for River Rch & Prof#=U101-08-00,U101-08-00_0002 , 1 
Up Type= 0 
Dn Type= 3 
Dn Slope=0.00066
Boundary for River Rch & Prof#=U101-08-00,U101-08-00_0002 , 2 
Up Type= 0 
Dn Type= 3 
Dn Slope=0.00066
Boundary for River Rch & Prof#=U101-08-00,U101-08-00_0002 , 3 
Up Type= 0 
Dn Type= 3 
Dn Slope=0.00066
Boundary for River Rch & Prof#=U101-08-00,U101-08-00_0002 , 4 
Up Type= 0 
Dn Type= 3 
Dn Slope=0.00066
Observed WS=U101-08-00      ,U101-08-00_0002 ,11155.58,0,132.36,134.42,136.12,138.06
Observed WS=U101-08-00      ,U101-08-00_0002 ,11053.56,0,132.36,134.42,136.12,138.06
Observed WS=U101-08-00      ,U101-08-00_0002 ,10653.05,0,132.32,134.4,136.11,138.05
Observed WS=U101-08-00      ,U101-08-00_0002 ,10351.71,0,132.29,134.38,136.1,138.05
Observed WS=U101-08-00      ,U101-08-00_0002 ,10051.85,0,132.26,134.37,136.09,138.04
Observed WS=U101-08-00      ,U101-08-00_0002 ,9850.69 ,0,132.25,134.36,136.09,138.04
Observed WS=U101-08-00      ,U101-08-00_0002 ,9295.705,0,132.22,134.34,136.08,138.03
Observed WS=U101-08-00      ,U101-08-00_0002 ,8895.74 ,0,132.2,134.33,136.07,138.03
Observed WS=U101-08-00      ,U101-08-00_0002 ,8688.143,0,132.19,134.33,136.07,138.02
Observed WS=U101-08-00      ,U101-08-00_0002 ,8485.234,0,132.18,134.32,136.07,138.02
Observed WS=U101-08-00      ,U101-08-00_0002 ,8287.832,0,132.18,134.32,136.07,138.02
Observed WS=U101-08-00      ,U101-08-00_0002 ,8092.732,0,132.17,134.31,136.06,138.01
Observed WS=U101-08-00      ,U101-08-00_0002 ,7901.195,0,132.16,134.31,136.06,138.01
Observed WS=U101-08-00      ,U101-08-00_0002 ,7750.004,0,131.91,133.81,135.42,137.36
Observed WS=U101-08-00      ,U101-08-00_0002 ,7691.996,0,131.9,133.81,135.42,137.35
Observed WS=U101-08-00      ,U101-08-00_0002 ,7607.596,0,131.9,133.81,135.41,137.35
Observed WS=U101-08-00      ,U101-08-00_0002 ,7589.07 ,0,131.9,133.8,135.41,137.35
Observed WS=U101-08-00      ,U101-08-00_0002 ,7525.309,0,131.34,132.84,134.1,136.06
Observed WS=U101-08-00      ,U101-08-00_0002 ,7456.862,0,131.32,132.83,134.09,136.05
Observed WS=U101-08-00      ,U101-08-00_0002 ,7295.447,0,131.29,132.8,134.07,136.04
Observed WS=U101-08-00      ,U101-08-00_0002 ,6523.721,0,131.11,132.67,133.99,135.99
Observed WS=U101-08-00      ,U101-08-00_0002 ,5714.47 ,0,130.94,132.55,133.92,135.95
Observed WS=U101-08-00      ,U101-08-00_0002 ,5309.224,0,130.88,132.5,133.89,135.93
Observed WS=U101-08-00      ,U101-08-00_0002 ,4890.756,0,130.77,132.41,133.83,135.88
Observed WS=U101-08-00      ,U101-08-00_0002 ,4872.718,0,130.76,132.4,133.82,135.88
Observed WS=U101-08-00      ,U101-08-00_0002 ,4122.137,0,130.51,132.21,133.7,135.79
Observed WS=U101-08-00      ,U101-08-00_0002 ,3440.281,0,130.37,132.12,133.65,135.75
Observed WS=U101-08-00      ,U101-08-00_0002 ,3176.741,0,130.33,132.09,133.63,135.74
Observed WS=U101-08-00      ,U101-08-00_0002 ,3159.739,0,130.33,132.09,133.63,135.74
Observed WS=U101-08-00      ,U101-08-00_0002 ,3101.097,0,129.32,130.62,131.68,135.11
Observed WS=U101-08-00      ,U101-08-00_0002 ,3046.937,0,129.28,130.6,131.66,135.11
Observed WS=U101-08-00      ,U101-08-00_0002 ,2535.291,0,129.13,130.5,131.59,135.08
Observed WS=U101-08-00      ,U101-08-00_0002 ,2455.761,0,129.11,130.48,131.58,135.07
Observed WS=U101-08-00      ,U101-08-00_0002 ,2335.474,0,127.41,128.51,129.44,132.38
Observed WS=U101-08-00      ,U101-08-00_0002 ,2330.317,0,127.37,128.48,129.42,132.37
Observed WS=U101-08-00      ,U101-08-00_0002 ,2017.84 ,0,126.93,128.24,129.26,132.31
Observed WS=U101-08-00      ,U101-08-00_0002 ,1526.611,0,126.45,127.95,129.07,132.22
Observed WS=U101-08-00      ,U101-08-00_0002 ,1478.421,0,126.42,127.93,129.05,132.22
Observed WS=U101-08-00      ,U101-08-00_0002 ,1287.94 ,0,125.05,125.61,125.96,126.88
Observed WS=U101-08-00      ,U101-08-00_0002 ,1278.983,0,125.02,125.59,125.93,126.85
Observed WS=U101-08-00      ,U101-08-00_0002 ,1098.127,0,124.57,125.12,125.45,126.34
Observed WS=U101-08-00      ,U101-08-00_0002 ,890.525 ,0,124.07,124.61,124.93,125.77
Observed WS=U101-08-00      ,U101-08-00_0002 ,688.6711,0,123.52,124.02,124.33,125.1
Observed WS=U101-08-00      ,U101-08-00_0002 ,533.9202,0,121.51,121.91,122.15,123.11
Observed WS=U101-08-00      ,U101-08-00_0002 ,521.9677,0,120.93,121.74,122.24,123.59
Observed WS=U101-08-00      ,U101-08-00_0002 ,161.0575,0,120.72,121.55,122.05,123.42
DSS Import StartDate=
DSS Import StartTime=
DSS Import EndDate=
DSS Import EndTime=
DSS Import GetInterval= 0 
DSS Import Interval=
DSS Import GetPeak= 0 
DSS Import FillOption= 0 
