Flow Title=Effective Floodway 2019 (Re-Study)
Program Version=4.10
Number of Profiles= 2 
Profile Names=100YR,FW
River Rch & RM=U101-07-00,U101-07-00_0001 ,14984.67
      25      25
River Rch & RM=U101-07-00,U101-07-00_0001 ,14345.6 
      31      31
River Rch & RM=U101-07-00,U101-07-00_0001 ,13648.78
      38      38
River Rch & RM=U101-07-00,U101-07-00_0001 ,12903.38
      44      44
River Rch & RM=U101-07-00,U101-07-00_0001 ,12418.11
      49      49
River Rch & RM=U101-07-00,U101-07-00_0001 ,12065.24
      64      64
River Rch & RM=U101-07-00,U101-07-00_0001 ,11200.33
      74      74
River Rch & RM=U101-07-00,U101-07-00_0001 ,10701.13
      83      83
River Rch & RM=U101-07-00,U101-07-00_0001 ,10347.76
      95      95
River Rch & RM=U101-07-00,U101-07-00_0001 ,9900.212
     110     110
River Rch & RM=U101-07-00,U101-07-00_0001 ,9392.124
     123     123
River Rch & RM=U101-07-00,U101-07-00_0001 ,9017.523
     124     124
River Rch & RM=U101-07-00,U101-07-00_0001 ,8992.246
      53      53
River Rch & RM=U101-07-00,U101-07-00_0001 ,8955.833
      68      68
River Rch & RM=U101-07-00,U101-07-00_0001 ,8229.257
      96      96
River Rch & RM=U101-07-00,U101-07-00_0001 ,7239.441
     124     124
River Rch & RM=U101-07-00,U101-07-00_0001 ,6497.662
     161     161
River Rch & RM=U101-07-00,U101-07-00_0001 ,5743.321
     186     186
River Rch & RM=U101-07-00,U101-07-00_0001 ,5333.757
     187     187
River Rch & RM=U101-07-00,U101-07-00_0001 ,5322.362
     187     187
River Rch & RM=U101-07-00,U101-07-00_0001 ,5211.394
     187     187
River Rch & RM=U101-07-00,U101-07-00_0001 ,4974.61 
     192     192
River Rch & RM=U101-07-00,U101-07-00_0001 ,4907.297
     201     201
River Rch & RM=U101-07-00,U101-07-00_0001 ,4419.56 
     219     219
River Rch & RM=U101-07-00,U101-07-00_0001 ,3515.556
      95      95
River Rch & RM=U101-07-00,U101-07-00_0001 ,3295.503
      97      97
River Rch & RM=U101-07-00,U101-07-00_0001 ,3093.946
     105     105
River Rch & RM=U101-07-00,U101-07-00_0001 ,2350.281
     112     112
River Rch & RM=U101-07-00,U101-07-00_0001 ,1688.528
     119     119
River Rch & RM=U101-07-00,U101-07-00_0001 ,1093.222
     127     127
River Rch & RM=U101-07-00,U101-07-00_0001 ,468.3679
     132     132
Boundary for River Rch & Prof#=U101-07-00,U101-07-00_0001 , 1 
Up Type= 0 
Dn Type= 3 
Dn Slope=0.0024
Boundary for River Rch & Prof#=U101-07-00,U101-07-00_0001 , 2 
Up Type= 0 
Dn Type= 3 
Dn Slope=0.0024
Observed WS=U101-07-00      ,U101-07-00_0001 ,14984.67,0,140,140.64
Observed WS=U101-07-00      ,U101-07-00_0001 ,14345.6 ,0,139.66,140.43
Observed WS=U101-07-00      ,U101-07-00_0001 ,14157.09,0,139.56,140.33
Observed WS=U101-07-00      ,U101-07-00_0001 ,14095.85,0,139.46,140.02
Observed WS=U101-07-00      ,U101-07-00_0001 ,14045.11,0,139.13,139.63
Observed WS=U101-07-00      ,U101-07-00_0001 ,13997   ,0,138.76,139.24
Observed WS=U101-07-00      ,U101-07-00_0001 ,13599.75,0,138.4,138.88
Observed WS=U101-07-00      ,U101-07-00_0001 ,12903.38,0,138.14,138.65
Observed WS=U101-07-00      ,U101-07-00_0001 ,12678.13,0,137.75,138.34
Observed WS=U101-07-00      ,U101-07-00_0001 ,12461.48,0,137.75,138.34
Observed WS=U101-07-00      ,U101-07-00_0001 ,12418.11,0,137.74,138.34
Observed WS=U101-07-00      ,U101-07-00_0001 ,12393.27,0,137.66,138.25
Observed WS=U101-07-00      ,U101-07-00_0001 ,12333.3 ,0,137.38,137.98
Observed WS=U101-07-00      ,U101-07-00_0001 ,12065.24,0,137.26,137.86
Observed WS=U101-07-00      ,U101-07-00_0001 ,11200.33,0,137.13,137.75
Observed WS=U101-07-00      ,U101-07-00_0001 ,10701.13,0,136.31,136.99
Observed WS=U101-07-00      ,U101-07-00_0001 ,10347.76,0,135.99,136.68
Observed WS=U101-07-00      ,U101-07-00_0001 ,10046.98,0,135.81,136.51
Observed WS=U101-07-00      ,U101-07-00_0001 ,10003.84,0,135.77,136.46
Observed WS=U101-07-00      ,U101-07-00_0001 ,9954.988,0,135.51,135.96
Observed WS=U101-07-00      ,U101-07-00_0001 ,9900.212,0,135.39,135.87
Observed WS=U101-07-00      ,U101-07-00_0001 ,9085.937,0,134.41,135.1
Observed WS=U101-07-00      ,U101-07-00_0001 ,8819.565,0,133.25,134.25
Observed WS=U101-07-00      ,U101-07-00_0001 ,5638.31 ,0,129.5,130.67
Observed WS=U101-07-00      ,U101-07-00_0001 ,5196.791,0,129.41,130.65
Observed WS=U101-07-00      ,U101-07-00_0001 ,4974.61 ,0,129.19,130.31
Observed WS=U101-07-00      ,U101-07-00_0001 ,4907.297,0,127.88,129.31
Observed WS=U101-07-00      ,U101-07-00_0001 ,4704.912,0,126.09,127.08
Observed WS=U101-07-00      ,U101-07-00_0001 ,4419.56 ,0,124.43,125.58
Observed WS=U101-07-00      ,U101-07-00_0001 ,3680.687,0,121.8,123.69
Observed WS=U101-07-00      ,U101-07-00_0001 ,3515.556,0,121.42,123.45
Observed WS=U101-07-00      ,U101-07-00_0001 ,3295.503,0,128.27,129.49
Observed WS=U101-07-00      ,U101-07-00_0001 ,3093.946,0,127.86,129.07
Observed WS=U101-07-00      ,U101-07-00_0001 ,2350.281,0,126.53,127.72
Observed WS=U101-07-00      ,U101-07-00_0001 ,1688.528,0,124.61,125.54
Observed WS=U101-07-00      ,U101-07-00_0001 ,1123.231,0,124.57,125.48
Observed WS=U101-07-00      ,U101-07-00_0001 ,1118.2  ,0,123.91,124.57
Observed WS=U101-07-00      ,U101-07-00_0001 ,1098.213,0,123.75,124.3
Observed WS=U101-07-00      ,U101-07-00_0001 ,1093.222,0,123.63,124.2
Observed WS=U101-07-00      ,U101-07-00_0001 ,1073.229,0,122.22,123.14
Observed WS=U101-07-00      ,U101-07-00_0001 ,1068.218,0,122.21,123.13
Observed WS=U101-07-00      ,U101-07-00_0001 ,870.9581,0,121.32,121.99
Observed WS=U101-07-00      ,U101-07-00_0001 ,843.7701,0,121.09,121.72
Observed WS=U101-07-00      ,U101-07-00_0001 ,838.4837,0,120.89,121.46
Observed WS=U101-07-00      ,U101-07-00_0001 ,821.0098,0,119.23,119.86
Observed WS=U101-07-00      ,U101-07-00_0001 ,815.2426,0,119.03,119.6
Observed WS=U101-07-00      ,U101-07-00_0001 ,163.4989,0,117.74,119.07
Observed WS=U101-07-00      ,U101-07-00_0001 ,114.7056,0,117.49,118.45
DSS Import StartDate=
DSS Import StartTime=
DSS Import EndDate=
DSS Import EndTime=
DSS Import GetInterval= 0 
DSS Import Interval=
DSS Import GetPeak= 0 
DSS Import FillOption= 0 
