Flow Title=Effective Multi-Profile 2019 (Re-Study)
Program Version=4.10
Number of Profiles= 4 
Profile Names=10YR,50YR,100YR,500YR
River Rch & RM=U101-07-00,U101-07-00_0001 ,14984.67
       2       5      25      47
River Rch & RM=U101-07-00,U101-07-00_0001 ,14345.6 
       3       7      31      56
River Rch & RM=U101-07-00,U101-07-00_0001 ,13648.78
       4      11      38      68
River Rch & RM=U101-07-00,U101-07-00_0001 ,12903.38
       6      15      44      77
River Rch & RM=U101-07-00,U101-07-00_0001 ,12418.11
       8      18      49      84
River Rch & RM=U101-07-00,U101-07-00_0001 ,12065.24
      14      30      64     104
River Rch & RM=U101-07-00,U101-07-00_0001 ,11200.33
      20      40      74     118
River Rch & RM=U101-07-00,U101-07-00_0001 ,10701.13
      26      49      83     129
River Rch & RM=U101-07-00,U101-07-00_0001 ,10347.76
      36      63      95     144
River Rch & RM=U101-07-00,U101-07-00_0001 ,9900.212
      51      84     110     164
River Rch & RM=U101-07-00,U101-07-00_0001 ,9392.124
      66     104     123     180
River Rch & RM=U101-07-00,U101-07-00_0001 ,9017.523
      68     106     124     181
River Rch & RM=U101-07-00,U101-07-00_0001 ,8992.246
      53      53      53      52
River Rch & RM=U101-07-00,U101-07-00_0001 ,8955.833
      58      65      68      71
River Rch & RM=U101-07-00,U101-07-00_0001 ,8229.257
      66      86      96     108
River Rch & RM=U101-07-00,U101-07-00_0001 ,7239.441
      74     107     124     148
River Rch & RM=U101-07-00,U101-07-00_0001 ,6497.662
      82     133     161     204
River Rch & RM=U101-07-00,U101-07-00_0001 ,5743.321
      86     149     186     243
River Rch & RM=U101-07-00,U101-07-00_0001 ,5333.757
      86     150     187     244
River Rch & RM=U101-07-00,U101-07-00_0001 ,5322.362
      86     150     187     244
River Rch & RM=U101-07-00,U101-07-00_0001 ,5211.394
      87     150     187     245
River Rch & RM=U101-07-00,U101-07-00_0001 ,4974.61 
      92     156     192     256
River Rch & RM=U101-07-00,U101-07-00_0001 ,4907.297
     103     167     201     276
River Rch & RM=U101-07-00,U101-07-00_0001 ,4419.56 
     126     190     219     317
River Rch & RM=U101-07-00,U101-07-00_0001 ,3515.556
       2      66      95     193
River Rch & RM=U101-07-00,U101-07-00_0001 ,3295.503
       2      67      97     196
River Rch & RM=U101-07-00,U101-07-00_0001 ,3093.946
       4      73     105     210
River Rch & RM=U101-07-00,U101-07-00_0001 ,2350.281
       8      79     112     222
River Rch & RM=U101-07-00,U101-07-00_0001 ,1688.528
      13      85     119     234
River Rch & RM=U101-07-00,U101-07-00_0001 ,1093.222
      24      91     127     247
River Rch & RM=U101-07-00,U101-07-00_0001 ,468.3679
      33      95     132     255
Boundary for River Rch & Prof#=U101-07-00,U101-07-00_0001 , 1 
Up Type= 0 
Dn Type= 3 
Dn Slope=0.0024
Boundary for River Rch & Prof#=U101-07-00,U101-07-00_0001 , 2 
Up Type= 0 
Dn Type= 3 
Dn Slope=0.0024
Boundary for River Rch & Prof#=U101-07-00,U101-07-00_0001 , 3 
Up Type= 0 
Dn Type= 3 
Dn Slope=0.0024
Boundary for River Rch & Prof#=U101-07-00,U101-07-00_0001 , 4 
Up Type= 0 
Dn Type= 3 
Dn Slope=0.0024
Observed WS=U101-07-00      ,U101-07-00_0001 ,14984.67,0,140,140.64,140.86,141.08
Observed WS=U101-07-00      ,U101-07-00_0001 ,14345.6 ,0,139.66,140.43,140.66,141.02
Observed WS=U101-07-00      ,U101-07-00_0001 ,14157.09,0,139.56,140.33,140.56,140.88
Observed WS=U101-07-00      ,U101-07-00_0001 ,14095.85,0,139.46,140.02,140.21,140.55
Observed WS=U101-07-00      ,U101-07-00_0001 ,14045.11,0,139.13,139.63,139.81,139.78
Observed WS=U101-07-00      ,U101-07-00_0001 ,13997   ,0,138.76,139.24,139.43,139.7
Observed WS=U101-07-00      ,U101-07-00_0001 ,13599.75,0,138.4,138.88,139.07,139.41
Observed WS=U101-07-00      ,U101-07-00_0001 ,12903.38,0,138.14,138.65,138.84,139.2
Observed WS=U101-07-00      ,U101-07-00_0001 ,12678.13,0,137.75,138.34,138.55,139.14
Observed WS=U101-07-00      ,U101-07-00_0001 ,12461.48,0,137.75,138.34,138.55,139.13
Observed WS=U101-07-00      ,U101-07-00_0001 ,12418.11,0,137.74,138.34,138.55,139.13
Observed WS=U101-07-00      ,U101-07-00_0001 ,12393.27,0,137.66,138.25,138.47,139.05
Observed WS=U101-07-00      ,U101-07-00_0001 ,12333.3 ,0,137.38,137.98,138.19,138.76
Observed WS=U101-07-00      ,U101-07-00_0001 ,12065.24,0,137.26,137.86,138.07,138.63
Observed WS=U101-07-00      ,U101-07-00_0001 ,11200.33,0,137.13,137.75,137.96,138.53
Observed WS=U101-07-00      ,U101-07-00_0001 ,10701.13,0,136.31,136.99,137.16,137.62
Observed WS=U101-07-00      ,U101-07-00_0001 ,10347.76,0,135.99,136.68,136.81,137.17
Observed WS=U101-07-00      ,U101-07-00_0001 ,10046.98,0,135.81,136.51,136.62,136.88
Observed WS=U101-07-00      ,U101-07-00_0001 ,10003.84,0,135.77,136.46,136.56,136.78
Observed WS=U101-07-00      ,U101-07-00_0001 ,9954.988,0,135.51,135.96,136.09,136.44
Observed WS=U101-07-00      ,U101-07-00_0001 ,9900.212,0,135.39,135.87,136.03,136.45
Observed WS=U101-07-00      ,U101-07-00_0001 ,9085.937,0,134.41,135.1,135.47,136.35
Observed WS=U101-07-00      ,U101-07-00_0001 ,8819.565,0,133.25,134.25,134.86,136.3
Observed WS=U101-07-00      ,U101-07-00_0001 ,5638.31 ,0,129.5,130.67,130.88,131.88
Observed WS=U101-07-00      ,U101-07-00_0001 ,5196.791,0,129.41,130.65,130.86,131.85
Observed WS=U101-07-00      ,U101-07-00_0001 ,4974.61 ,0,129.19,130.31,130.51,131.45
Observed WS=U101-07-00      ,U101-07-00_0001 ,4907.297,0,127.88,129.31,129.56,130.76
Observed WS=U101-07-00      ,U101-07-00_0001 ,4704.912,0,126.09,127.08,127.26,127.8
Observed WS=U101-07-00      ,U101-07-00_0001 ,4419.56 ,0,124.43,125.58,125.67,126.58
Observed WS=U101-07-00      ,U101-07-00_0001 ,3680.687,0,121.8,123.69,124.1,125.98
Observed WS=U101-07-00      ,U101-07-00_0001 ,3515.556,0,121.42,123.45,123.91,125.89
Observed WS=U101-07-00      ,U101-07-00_0001 ,3295.503,0,128.27,129.49,129.72,130.38
Observed WS=U101-07-00      ,U101-07-00_0001 ,3093.946,0,127.86,129.07,129.31,129.69
Observed WS=U101-07-00      ,U101-07-00_0001 ,2350.281,0,126.53,127.72,127.98,127.72
Observed WS=U101-07-00      ,U101-07-00_0001 ,1688.528,0,124.61,125.54,125.76,125.54
Observed WS=U101-07-00      ,U101-07-00_0001 ,1123.231,0,124.57,125.48,125.71,125.48
Observed WS=U101-07-00      ,U101-07-00_0001 ,1118.2  ,0,123.91,124.57,124.76,124.57
Observed WS=U101-07-00      ,U101-07-00_0001 ,1098.213,0,123.75,124.3,124.43,124.3
Observed WS=U101-07-00      ,U101-07-00_0001 ,1093.222,0,123.63,124.2,124.36,124.2
Observed WS=U101-07-00      ,U101-07-00_0001 ,1073.229,0,122.22,123.14,123.38,123.14
Observed WS=U101-07-00      ,U101-07-00_0001 ,1068.218,0,122.21,123.13,123.37,123.13
Observed WS=U101-07-00      ,U101-07-00_0001 ,870.9581,0,121.32,121.99,122.17,121.99
Observed WS=U101-07-00      ,U101-07-00_0001 ,843.7701,0,121.09,121.72,121.89,121.72
Observed WS=U101-07-00      ,U101-07-00_0001 ,838.4837,0,120.89,121.46,121.62,121.46
Observed WS=U101-07-00      ,U101-07-00_0001 ,821.0098,0,119.23,119.86,120.03,120.5
Observed WS=U101-07-00      ,U101-07-00_0001 ,815.2426,0,119.03,119.6,119.76,120.49
Observed WS=U101-07-00      ,U101-07-00_0001 ,163.4989,0,117.74,119.07,119.44,120.27
Observed WS=U101-07-00      ,U101-07-00_0001 ,114.7056,0,117.49,118.45,119,119.58
DSS Import StartDate=
DSS Import StartTime=
DSS Import EndDate=
DSS Import EndTime=
DSS Import GetInterval= 0 
DSS Import Interval=
DSS Import GetPeak= 0 
DSS Import FillOption= 0 
